@<TRIPOS>MOLECULE

36 38 1
SMALL
USER_CHARGES
@<TRIPOS>ATOM
1	O1    -0.4150     6.7584     3.7719	O.2	1	noname	-0.2687
2	C1     0.4020     6.2095     3.0315	C.2	1	noname	0.0666
3	N1     0.0541     4.9871     2.5189	N.3	1	noname	0.0315
4	C2     0.7895     4.2403     1.6502	C.2	1	noname	-0.0589
5	C3     0.1739     3.0491     1.0763	C.2	1	noname	0.0020
6	C4    -0.9804     3.1470     0.3698	C.2	1	noname	-0.0081
7	C5    -1.5654     2.0539    -0.1629	C.2	1	noname	-0.0185
8	C6    -1.0055     0.8381     0.0023	C.2	1	noname	0.0274
9	C7     0.1412     0.7408     0.7056	C.2	1	noname	0.0436
10	N2     0.7574    -0.5784     0.8884	N.2	1	noname	0.1637
11	O2     1.8393    -0.6366     1.4921	O.3	1	noname	-0.2537
12	O3     0.1661    -1.5659     0.4268	O.2	1	noname	-0.2537
13	C8     0.7365     1.8257     1.2445	C.2	1	noname	0.0424
14	C9     2.0392     4.6307     1.3912	C.2	1	noname	-0.0394
15	C10     2.6388     5.8162     2.0675	C.3	1	noname	0.0322
16	N3     1.6413     6.7282     2.6344	N.3	1	noname	-0.1167
17	C11     2.0094     8.0745     2.9129	C.2	1	noname	0.0054
18	C12     1.0476     9.0380     2.9556	C.2	1	noname	-0.0256
19	C13     1.3379    10.3306     3.1951	C.2	1	noname	-0.0662
20	C14     2.6103    10.7046     3.3977	C.2	1	noname	-0.0523
21	C15     3.5848     9.7802     3.3571	C.2	1	noname	-0.0255
22	C16     3.3048     8.4787     3.1161	C.2	1	noname	0.0231
23	O4     4.3639     7.5793     3.1171	O.3	1	noname	-0.2789
24	H1    -0.8315     4.5985     2.8101	H	1	noname	0.1385
25	H2    -1.4466     4.1219     0.2276	H	1	noname	0.0629
26	H3    -2.4922     2.1533    -0.7279	H	1	noname	0.0624
27	H4    -1.4713    -0.0499    -0.4250	H	1	noname	0.0672
28	H5     1.6620     1.7149     1.8096	H	1	noname	0.0679
29	H6     2.5493     4.0069     0.6573	H	1	noname	0.0606
30	H7     3.2007     5.4306     2.9182	H	1	noname	0.0485
31	H8     3.1488     6.3855     1.2904	H	1	noname	0.0485
32	H9     0.0054     8.7640     2.7918	H	1	noname	0.0640
33	H10     0.5421    11.0749     3.2250	H	1	noname	0.0623
34	H11     2.8500    11.7498     3.5934	H	1	noname	0.0623
35	H12     4.6167    10.0904     3.5220	H	1	noname	0.0650
36	H13     4.6074     7.3726     4.0224	H	1	noname	0.2182
@<TRIPOS>BOND
1	1	2	2
2	2	3	1
3	2	16	1
4	3	4	1
5	4	5	1
6	4	14	2
7	5	6	2
8	5	13	1
9	6	7	1
10	7	8	2
11	8	9	1
12	9	10	1
13	9	13	2
14	10	11	1
15	10	12	2
16	14	15	1
17	15	16	1
18	16	17	1
19	17	18	2
20	17	22	1
21	18	19	1
22	19	20	2
23	20	21	1
24	21	22	2
25	22	23	1
26	3	24	1
27	6	25	1
28	7	26	1
29	8	27	1
30	13	28	1
31	14	29	1
32	15	30	1
33	15	31	1
34	18	32	1
35	19	33	1
36	20	34	1
37	21	35	1
38	23	36	1
@<TRIPOS>SUBSTRUCTURE
1	noname	1
