@<TRIPOS>MOLECULE

39 40 1
SMALL
USER_CHARGES
@<TRIPOS>ATOM
1	C1    -2.2498     1.7528    -0.7805	C.3	1	noname	-0.0293
2	C2    -2.4315     2.6841     0.4626	C.3	1	noname	-0.0167
3	C3    -3.8249     1.7741    -0.9258	C.3	1	noname	-0.0314
4	C4    -3.7931     3.1177    -0.1466	C.3	1	noname	-0.0409
5	C5    -1.4978     3.8255     0.7216	C.2	1	noname	-0.0826
6	C6    -1.6261     0.3683    -0.5670	C.3	1	noname	-0.0456
7	C7    -4.2972     1.9174    -2.3722	C.3	1	noname	-0.0596
8	C8    -4.6238     0.6873    -0.1999	C.3	1	noname	-0.0596
9	C9    -0.5054     4.3007    -0.3143	C.3	1	noname	-0.0285
10	C10    -0.1029     0.3651    -0.7230	C.3	1	noname	-0.0320
11	C11    -1.6057     4.4406     1.9134	C.2	1	noname	-0.0905
12	C12     0.6435     1.0443     0.4031	C.2	1	noname	-0.0800
13	C13     0.6543     3.3514    -0.6669	C.3	1	noname	-0.0310
14	C14     0.9909     2.3465     0.3998	C.2	1	noname	-0.0824
15	C15     0.9876     0.1612     1.5733	C.3	1	noname	-0.0439
16	H1    -1.7883     2.2479    -1.6462	H	1	noname	0.0314
17	H2    -2.5664     2.0881     1.3789	H	1	noname	0.0352
18	H3    -4.5712     3.1451     0.6163	H	1	noname	0.0278
19	H4    -3.6663     3.9604    -0.8262	H	1	noname	0.0278
20	H5    -1.8215     0.1073     0.4731	H	1	noname	0.0273
21	H6    -2.0110    -0.2621    -1.3686	H	1	noname	0.0273
22	H7    -4.4394     0.9283    -2.8077	H	1	noname	0.0236
23	H8    -5.2405     2.4630    -2.3940	H	1	noname	0.0236
24	H9    -3.5485     2.4630    -2.9466	H	1	noname	0.0236
25	H10    -4.5248     0.8219     0.8772	H	1	noname	0.0236
26	H11    -5.6746     0.7604    -0.4801	H	1	noname	0.0236
27	H12    -4.2404    -0.2938    -0.4801	H	1	noname	0.0236
28	H13    -1.0881     4.4008    -1.2301	H	1	noname	0.0315
29	H14    -0.0377     5.1779     0.1326	H	1	noname	0.0315
30	H15     0.1999    -0.6812    -0.6828	H	1	noname	0.0312
31	H16     0.1082     0.9598    -1.6117	H	1	noname	0.0312
32	H17    -0.7093     4.6898     2.4813	H	1	noname	0.0537
33	H18    -2.5895     4.6898     2.3111	H	1	noname	0.0537
34	H19     0.3140     2.7613    -1.5178	H	1	noname	0.0313
35	H20     1.5412     3.9784    -0.7584	H	1	noname	0.0313
36	H21     1.5649     2.5960     1.2922	H	1	noname	0.0575
37	H22     0.9006    -0.8843     1.2774	H	1	noname	0.0276
38	H23     2.0094     0.3643     1.8936	H	1	noname	0.0276
39	H24     0.3018     0.3643     2.3958	H	1	noname	0.0276
@<TRIPOS>BOND
1	1	2	1
2	1	3	1
3	1	6	1
4	1	16	1
5	2	4	1
6	2	5	1
7	2	17	1
8	3	4	1
9	3	7	1
10	3	8	1
11	5	9	1
12	5	11	2
13	6	10	1
14	9	13	1
15	10	12	1
16	12	14	2
17	12	15	1
18	13	14	1
19	4	18	1
20	4	19	1
21	6	20	1
22	6	21	1
23	7	22	1
24	7	23	1
25	7	24	1
26	8	25	1
27	8	26	1
28	8	27	1
29	9	28	1
30	9	29	1
31	10	30	1
32	10	31	1
33	11	32	1
34	11	33	1
35	13	34	1
36	13	35	1
37	14	36	1
38	15	37	1
39	15	38	1
40	15	39	1
@<TRIPOS>SUBSTRUCTURE
1	noname	1
