REMARK  3 active torsions:
REMARK  status: ('A' for Active; 'I' for Inactive)
REMARK    1  A    between atoms: C3_3  and  C7_7 
REMARK    2  A    between atoms: C3_3  and  C8_8 
REMARK    3  A    between atoms: C12_12  and  C15_15 
ROOT
ATOM      1  C1  non d   1      -2.250   1.753  -0.780  0.00  0.00    -0.029 C 
ATOM      2  C2  non d   1      -2.432   2.684   0.463  0.00  0.00    -0.017 C 
ATOM      3  C3  non d   1      -3.825   1.774  -0.926  0.00  0.00    -0.031 C 
ATOM      4  C4  non d   1      -3.793   3.118  -0.147  0.00  0.00    -0.041 C 
ATOM      5  C5  non d   1      -1.498   3.825   0.722  0.00  0.00    -0.083 C 
ATOM      6  C6  non d   1      -1.626   0.368  -0.567  0.00  0.00    -0.046 C 
ATOM      7  C9  non d   1      -0.505   4.301  -0.314  0.00  0.00    -0.029 C 
ATOM      8  C10 non d   1      -0.103   0.365  -0.723  0.00  0.00    -0.032 C 
ATOM      9  C11 non d   1      -1.606   4.441   1.913  0.00  0.00    -0.090 C 
ATOM     10  C12 non d   1       0.643   1.044   0.403  0.00  0.00    -0.080 C 
ATOM     11  C13 non d   1       0.654   3.351  -0.667  0.00  0.00    -0.031 C 
ATOM     12  C14 non d   1       0.991   2.346   0.400  0.00  0.00    -0.082 C 
ATOM     13  H1  non d   1      -1.788   2.248  -1.646  0.00  0.00     0.031 H 
ATOM     14  H2  non d   1      -2.566   2.088   1.379  0.00  0.00     0.035 H 
ATOM     15  H3  non d   1      -4.571   3.145   0.616  0.00  0.00     0.028 H 
ATOM     16  H4  non d   1      -3.666   3.960  -0.826  0.00  0.00     0.028 H 
ATOM     17  H5  non d   1      -1.821   0.107   0.473  0.00  0.00     0.027 H 
ATOM     18  H6  non d   1      -2.011  -0.262  -1.369  0.00  0.00     0.027 H 
ATOM     19  H13 non d   1      -1.088   4.401  -1.230  0.00  0.00     0.032 H 
ATOM     20  H14 non d   1      -0.038   5.178   0.133  0.00  0.00     0.032 H 
ATOM     21  H15 non d   1       0.200  -0.681  -0.683  0.00  0.00     0.031 H 
ATOM     22  H16 non d   1       0.108   0.960  -1.612  0.00  0.00     0.031 H 
ATOM     23  H17 non d   1      -0.709   4.690   2.481  0.00  0.00     0.054 H 
ATOM     24  H18 non d   1      -2.590   4.690   2.311  0.00  0.00     0.054 H 
ATOM     25  H19 non d   1       0.314   2.761  -1.518  0.00  0.00     0.031 H 
ATOM     26  H20 non d   1       1.541   3.978  -0.758  0.00  0.00     0.031 H 
ATOM     27  H21 non d   1       1.565   2.596   1.292  0.00  0.00     0.058 H 
ENDROOT
BRANCH   3  28
ATOM     28  C7  non d   1      -4.297   1.917  -2.372  0.00  0.00    -0.060 C 
ATOM     29  H7  non d   1      -4.439   0.928  -2.808  0.00  0.00     0.024 H 
ATOM     30  H8  non d   1      -5.240   2.463  -2.394  0.00  0.00     0.024 H 
ATOM     31  H9  non d   1      -3.549   2.463  -2.947  0.00  0.00     0.024 H 
ENDBRANCH   3  28
BRANCH   3  32
ATOM     32  C8  non d   1      -4.624   0.687  -0.200  0.00  0.00    -0.060 C 
ATOM     33  H10 non d   1      -4.525   0.822   0.877  0.00  0.00     0.024 H 
ATOM     34  H11 non d   1      -5.675   0.760  -0.480  0.00  0.00     0.024 H 
ATOM     35  H12 non d   1      -4.240  -0.294  -0.480  0.00  0.00     0.024 H 
ENDBRANCH   3  32
BRANCH  10  36
ATOM     36  C15 non d   1       0.988   0.161   1.573  0.00  0.00    -0.044 C 
ATOM     37  H22 non d   1       0.901  -0.884   1.277  0.00  0.00     0.028 H 
ATOM     38  H23 non d   1       2.009   0.364   1.894  0.00  0.00     0.028 H 
ATOM     39  H24 non d   1       0.302   0.364   2.396  0.00  0.00     0.028 H 
ENDBRANCH  10  36
TORSDOF 3
