@<TRIPOS>MOLECULE
5368451
 24 23 0 0 0
SMALL
USER_CHARGES

@<TRIPOS>ATOM
      1 C1         -0.3344    0.5257    0.5956 C.2     1  noname1    -0.0603
      2 C2          0.1138   -0.7270    0.3633 C.2     1  noname1    -0.0586
      3 C3          1.4771   -1.1439    0.0939 C.2     1  noname1    -0.0601
      4 C4          3.1489   -2.9334   -0.4011 C.2     1  noname1    -0.0699
      5 C5          1.8101   -2.4276   -0.1242 C.2     1  noname1    -0.0618
      6 C6          0.5344    1.7595    0.6172 C.3     1  noname1    -0.0398
      7 C7          4.3090   -1.9761   -0.4612 C.3     1  noname1    -0.0404
      8 C8         -1.7651    0.7113    0.8458 C.2     1  noname1    -0.0719
      9 C9          3.3385   -4.2486   -0.6006 C.2     1  noname1    -0.0828
     10 C10        -2.3916    1.8691    1.0941 C.2     1  noname1    -0.0866
     11 H1         -0.6085   -1.5442    0.3723 H       1  noname1     0.0625
     12 H2          2.2442   -0.3791    0.0711 H       1  noname1     0.0622
     13 H3          1.0225   -3.1805   -0.0966 H       1  noname1     0.0625
     14 H4          0.4827    2.2474    1.5970 H       1  noname1     0.0279
     15 H5          1.5903    1.5597    0.4244 H       1  noname1     0.0279
     16 H6          0.2067    2.4723   -0.1480 H       1  noname1     0.0279
     17 H7          4.4342   -1.4574    0.4953 H       1  noname1     0.0279
     18 H8          5.2527   -2.4897   -0.6767 H       1  noname1     0.0279
     19 H9          4.1580   -1.2323   -1.2510 H       1  noname1     0.0279
     20 H10        -2.3820   -0.1875    0.8276 H       1  noname1     0.0619
     21 H11         4.3246   -4.6528   -0.8086 H       1  noname1     0.0540
     22 H12         2.5221   -4.9635   -0.5636 H       1  noname1     0.0540
     23 H13        -1.8797    2.8237    1.1362 H       1  noname1     0.0538
     24 H14        -3.4639    1.8827    1.2655 H       1  noname1     0.0538
@<TRIPOS>BOND
     1     1     2    2
     2     1     6    1
     3     1     8    1
     4     2     3    1
     5     2    11    1
     6     3     5    2
     7     3    12    1
     8     4     5    1
     9     4     7    1
    10     4     9    2
    11     5    13    1
    12     6    14    1
    13     6    15    1
    14     6    16    1
    15     7    17    1
    16     7    18    1
    17     7    19    1
    18     8    10    2
    19     8    20    1
    20     9    21    1
    21     9    22    1
    22    10    23    1
    23    10    24    1
