REMARK  3 active torsions:
REMARK  status: ('A' for Active; 'I' for Inactive)
REMARK    1  A    between atoms: C1_1  and  C7_7 
REMARK    2  A    between atoms: C1_1  and  C8_8 
REMARK    3  A    between atoms: C6_6  and  C10_10 
ROOT
ATOM      1  C1  non d   1      -2.236   1.193  -0.080  0.00  0.00    -0.026 C 
ATOM      2  C2  non d   1      -1.720   2.007   1.188  0.00  0.00    -0.032 C 
ATOM      3  C3  non d   1      -0.958   0.289   0.224  0.00  0.00    -0.015 C 
ATOM      4  C4  non d   1      -1.219   0.629   1.737  0.00  0.00    -0.043 C 
ATOM      5  C5  non d   1      -0.515   2.939   0.934  0.00  0.00    -0.031 C 
ATOM      6  C6  non d   1       0.345   0.906  -0.223  0.00  0.00    -0.077 C 
ATOM      7  C9  non d   1       0.542   2.187   0.150  0.00  0.00    -0.081 C 
ATOM      8  H1  non d   1      -2.500   2.489   1.786  0.00  0.00     0.031 H 
ATOM      9  H2  non d   1      -1.049  -0.769  -0.038  0.00  0.00     0.035 H 
ATOM     10  H3  non d   1      -0.345   0.654   2.398  0.00  0.00     0.028 H 
ATOM     11  H4  non d   1      -1.972   0.013   2.238  0.00  0.00     0.028 H 
ATOM     12  H5  non d   1      -0.092   3.273   1.888  0.00  0.00     0.031 H 
ATOM     13  H6  non d   1      -0.833   3.826   0.377  0.00  0.00     0.031 H 
ATOM     14  H13 non d   1       1.451   2.718  -0.117  0.00  0.00     0.058 H 
ENDROOT
BRANCH   1  15
ATOM     15  C7  non d   1      -3.590   0.480   0.108  0.00  0.00    -0.059 C 
ATOM     16  H7  non d   1      -4.409   1.208   0.113  0.00  0.00     0.024 H 
ATOM     17  H8  non d   1      -3.769  -0.225  -0.712  0.00  0.00     0.024 H 
ATOM     18  H9  non d   1      -3.662  -0.088   1.039  0.00  0.00     0.024 H 
ENDBRANCH   1  15
BRANCH   1  19
ATOM     19  C8  non d   1      -2.293   1.937  -1.420  0.00  0.00    -0.059 C 
ATOM     20  H10 non d   1      -2.461   1.232  -2.243  0.00  0.00     0.024 H 
ATOM     21  H11 non d   1      -1.385   2.493  -1.658  0.00  0.00     0.024 H 
ATOM     22  H12 non d   1      -3.117   2.659  -1.423  0.00  0.00     0.024 H 
ENDBRANCH   1  19
BRANCH   6  23
ATOM     23  C10 non d   1       1.304   0.080  -1.012  0.00  0.00    -0.044 C 
ATOM     24  H14 non d   1       1.607  -0.802  -0.439  0.00  0.00     0.028 H 
ATOM     25  H15 non d   1       2.207   0.642  -1.269  0.00  0.00     0.028 H 
ATOM     26  H16 non d   1       0.838  -0.255  -1.944  0.00  0.00     0.028 H 
ENDBRANCH   6  23
TORSDOF 3
