REMARK  4 active torsions:
REMARK  status: ('A' for Active; 'I' for Inactive)
REMARK    1  A    between atoms: C2_2  and  C9_9 
REMARK    2  A    between atoms: C2_2  and  C10_10 
REMARK    3  A    between atoms: C4_4  and  C11_11 
REMARK    4  A    between atoms: C7_7  and  C15_15 
ROOT
ATOM      1  C1  non d   1       2.638   0.385   2.401  0.00  0.00    -0.023 C 
ATOM      2  C2  non d   1       2.190   0.715   3.842  0.00  0.00    -0.028 C 
ATOM      3  C3  non d   1       3.296  -0.296   3.589  0.00  0.00    -0.031 C 
ATOM      4  C4  non d   1       2.022  -0.520   1.307  0.00  0.00    -0.005 C 
ATOM      5  C5  non d   1       3.166  -1.785   3.660  0.00  0.00    -0.046 C 
ATOM      6  C6  non d   1       2.833  -1.816   1.115  0.00  0.00    -0.074 C 
ATOM      7  C7  non d   1       1.958   0.269  -0.077  0.00  0.00    -0.035 C 
ATOM      8  C8  non d   1       3.548  -2.409   2.316  0.00  0.00    -0.031 C 
ATOM      9  C12 non d   1       1.506  -0.661  -1.226  0.00  0.00    -0.046 C 
ATOM     10  C13 non d   1       2.973  -2.407  -0.088  0.00  0.00    -0.079 C 
ATOM     11  C14 non d   1       2.400  -1.892  -1.375  0.00  0.00    -0.035 C 
ATOM     12  H1  non d   1       3.266   1.146   1.951  0.00  0.00     0.032 H 
ATOM     13  H2  non d   1       4.318   0.003   3.806  0.00  0.00     0.031 H 
ATOM     14  H3  non d   1       2.165  -2.114   3.946  0.00  0.00     0.027 H 
ATOM     15  H4  non d   1       3.838  -2.166   4.439  0.00  0.00     0.027 H 
ATOM     16  H5  non d   1       1.210   1.069   0.018  0.00  0.00     0.031 H 
ATOM     17  H6  non d   1       3.366  -3.490   2.365  0.00  0.00     0.031 H 
ATOM     18  H7  non d   1       4.627  -2.268   2.167  0.00  0.00     0.031 H 
ATOM     19  H17 non d   1       1.487  -0.113  -2.177  0.00  0.00     0.027 H 
ATOM     20  H18 non d   1       0.469  -0.980  -1.074  0.00  0.00     0.027 H 
ATOM     21  H19 non d   1       3.574  -3.311  -0.173  0.00  0.00     0.058 H 
ATOM     22  H20 non d   1       3.238  -1.647  -2.039  0.00  0.00     0.031 H 
ATOM     23  H21 non d   1       1.835  -2.691  -1.868  0.00  0.00     0.031 H 
ENDROOT
BRANCH   2  24
ATOM     24  C9  non d   1       0.881   0.298   4.458  0.00  0.00    -0.059 C 
ATOM     25  H8  non d   1       0.874   0.547   5.526  0.00  0.00     0.024 H 
ATOM     26  H9  non d   1       0.054   0.844   3.994  0.00  0.00     0.024 H 
ATOM     27  H10 non d   1       0.666  -0.768   4.408  0.00  0.00     0.024 H 
ENDBRANCH   2  24
BRANCH   2  28
ATOM     28  C10 non d   1       2.623   2.079   4.350  0.00  0.00    -0.059 C 
ATOM     29  H11 non d   1       2.745   2.061   5.438  0.00  0.00     0.024 H 
ATOM     30  H12 non d   1       1.870   2.833   4.097  0.00  0.00     0.024 H 
ATOM     31  H13 non d   1       3.577   2.399   3.916  0.00  0.00     0.024 H 
ENDBRANCH   2  28
BRANCH   4  32
ATOM     32  C11 non d   1       0.574  -0.944   1.656  0.00  0.00    -0.055 C 
ATOM     33  H14 non d   1      -0.063  -0.069   1.823  0.00  0.00     0.024 H 
ATOM     34  H15 non d   1       0.103  -1.542   0.871  0.00  0.00     0.024 H 
ATOM     35  H16 non d   1       0.527  -1.584   2.539  0.00  0.00     0.024 H 
ENDBRANCH   4  32
BRANCH   7  36
ATOM     36  C15 non d   1       3.274   0.951  -0.508  0.00  0.00    -0.062 C 
ATOM     37  H22 non d   1       3.235   1.250  -1.562  0.00  0.00     0.023 H 
ATOM     38  H23 non d   1       4.143   0.300  -0.378  0.00  0.00     0.023 H 
ATOM     39  H24 non d   1       3.449   1.873   0.055  0.00  0.00     0.023 H 
ENDBRANCH   7  36
TORSDOF 4
