REMARK  4 active torsions:
REMARK  status: ('A' for Active; 'I' for Inactive)
REMARK    1  A    between atoms: C3_3  and  C11_11 
REMARK    2  A    between atoms: C5_5  and  C12_12 
REMARK    3  A    between atoms: C5_5  and  C13_13 
REMARK    4  A    between atoms: C9_9  and  C15_15 
ROOT
ATOM      1  C1  non d   1      -2.171   1.111   0.366  0.00  0.00    -0.012 C 
ATOM      2  C2  non d   1      -0.932   0.210   0.295  0.00  0.00    -0.013 C 
ATOM      3  C3  non d   1      -1.953   2.634   0.040  0.00  0.00    -0.022 C 
ATOM      4  C4  non d   1      -1.516   0.576   1.633  0.00  0.00    -0.039 C 
ATOM      5  C5  non d   1      -3.546   0.495  -0.090  0.00  0.00    -0.029 C 
ATOM      6  C6  non d   1      -2.322   2.899  -1.441  0.00  0.00    -0.047 C 
ATOM      7  C7  non d   1      -3.848   0.911  -1.551  0.00  0.00    -0.048 C 
ATOM      8  C8  non d   1      -0.466   3.089   0.249  0.00  0.00    -0.029 C 
ATOM      9  C9  non d   1       0.352   0.788  -0.137  0.00  0.00    -0.077 C 
ATOM     10  C10 non d   1      -3.712   2.402  -1.821  0.00  0.00    -0.052 C 
ATOM     11  C14 non d   1       0.582   2.110  -0.176  0.00  0.00    -0.081 C 
ATOM     12  H1  non d   1      -1.036  -0.830   0.014  0.00  0.00     0.035 H 
ATOM     13  H2  non d   1      -0.966   1.252   2.278  0.00  0.00     0.028 H 
ATOM     14  H3  non d   1      -2.013  -0.203   2.200  0.00  0.00     0.028 H 
ATOM     15  H4  non d   1      -1.594   2.406  -2.098  0.00  0.00     0.027 H 
ATOM     16  H5  non d   1      -2.259   3.972  -1.660  0.00  0.00     0.027 H 
ATOM     17  H6  non d   1      -3.156   0.387  -2.225  0.00  0.00     0.027 H 
ATOM     18  H7  non d   1      -4.858   0.588  -1.835  0.00  0.00     0.027 H 
ATOM     19  H8  non d   1      -0.279   3.316   1.308  0.00  0.00     0.032 H 
ATOM     20  H9  non d   1      -0.297   4.031  -0.288  0.00  0.00     0.032 H 
ATOM     21  H10 non d   1      -4.489   2.964  -1.295  0.00  0.00     0.027 H 
ATOM     22  H11 non d   1      -3.876   2.587  -2.890  0.00  0.00     0.027 H 
ATOM     23  H21 non d   1       1.548   2.504  -0.474  0.00  0.00     0.058 H 
ENDROOT
BRANCH   5  24
ATOM     24  C12 non d   1      -4.691   0.918   0.855  0.00  0.00    -0.059 C 
ATOM     25  H15 non d   1      -5.597   0.329   0.667  0.00  0.00     0.024 H 
ATOM     26  H16 non d   1      -4.415   0.770   1.905  0.00  0.00     0.024 H 
ATOM     27  H17 non d   1      -4.990   1.957   0.732  0.00  0.00     0.024 H 
ENDBRANCH   5  24
BRANCH   5  28
ATOM     28  C13 non d   1      -3.565  -1.059  -0.084  0.00  0.00    -0.059 C 
ATOM     29  H18 non d   1      -4.554  -1.440  -0.368  0.00  0.00     0.024 H 
ATOM     30  H19 non d   1      -3.334  -1.471   0.904  0.00  0.00     0.024 H 
ATOM     31  H20 non d   1      -2.858  -1.482  -0.805  0.00  0.00     0.024 H 
ENDBRANCH   5  28
BRANCH   3  32
ATOM     32  C11 non d   1      -2.779   3.553   0.969  0.00  0.00    -0.059 C 
ATOM     33  H12 non d   1      -2.432   4.591   0.899  0.00  0.00     0.024 H 
ATOM     34  H13 non d   1      -3.839   3.583   0.723  0.00  0.00     0.024 H 
ATOM     35  H14 non d   1      -2.687   3.243   2.016  0.00  0.00     0.024 H 
ENDBRANCH   3  32
BRANCH   9  36
ATOM     36  C15 non d   1       1.426  -0.189  -0.533  0.00  0.00    -0.044 C 
ATOM     37  H22 non d   1       1.649  -0.864   0.301  0.00  0.00     0.028 H 
ATOM     38  H23 non d   1       2.358   0.310  -0.816  0.00  0.00     0.028 H 
ATOM     39  H24 non d   1       1.096  -0.790  -1.387  0.00  0.00     0.028 H 
ENDBRANCH   9  36
TORSDOF 4
