REMARK  3 active torsions:
REMARK  status: ('A' for Active; 'I' for Inactive)
REMARK    1  A    between atoms: C1_2  and  C8_9 
REMARK    2  A    between atoms: C1_2  and  C9_10 
REMARK    3  A    between atoms: C2_3  and  C10_11 
ROOT
ATOM      1  O1  non d   1       1.301  -0.076   0.264  0.00  0.00    -0.297 OA
ATOM      2  C1  non d   1      -1.914  -0.743  -0.933  0.00  0.00    -0.020 C 
ATOM      3  C2  non d   1      -0.821  -1.294   0.023  0.00  0.00     0.032 C 
ATOM      4  C3  non d   1      -2.154   0.510  -0.046  0.00  0.00    -0.028 C 
ATOM      5  C4  non d   1      -1.518  -1.329   1.403  0.00  0.00    -0.040 C 
ATOM      6  C5  non d   1      -2.454  -0.101   1.346  0.00  0.00    -0.049 C 
ATOM      7  C6  non d   1      -0.763   1.187   0.041  0.00  0.00     0.010 C 
ATOM      8  C7  non d   1       0.088  -0.064   0.122  0.00  0.00     0.137 C 
ATOM      9  H1  non d   1      -2.937   1.189  -0.393  0.00  0.00     0.031 H 
ATOM     10  H2  non d   1      -2.092  -2.249   1.555  0.00  0.00     0.028 H 
ATOM     11  H3  non d   1      -0.806  -1.238   2.231  0.00  0.00     0.028 H 
ATOM     12  H4  non d   1      -3.502  -0.407   1.431  0.00  0.00     0.027 H 
ATOM     13  H5  non d   1      -2.252   0.600   2.163  0.00  0.00     0.027 H 
ATOM     14  H6  non d   1      -0.521   1.757  -0.859  0.00  0.00     0.035 H 
ATOM     15  H7  non d   1      -0.647   1.802   0.936  0.00  0.00     0.035 H 
ENDROOT
BRANCH   2  16
ATOM     16  C8  non d   1      -1.421  -0.427  -2.360  0.00  0.00    -0.059 C 
ATOM     17  H8  non d   1      -1.274  -1.349  -2.933  0.00  0.00     0.024 H 
ATOM     18  H9  non d   1      -2.160   0.182  -2.893  0.00  0.00     0.024 H 
ATOM     19  H10 non d   1      -0.470   0.111  -2.394  0.00  0.00     0.024 H 
ENDBRANCH   2  16
BRANCH   2  20
ATOM     20  C9  non d   1      -3.156  -1.642  -1.087  0.00  0.00    -0.059 C 
ATOM     21  H11 non d   1      -3.950  -1.107  -1.621  0.00  0.00     0.024 H 
ATOM     22  H12 non d   1      -3.583  -1.987  -0.143  0.00  0.00     0.024 H 
ATOM     23  H13 non d   1      -2.914  -2.541  -1.666  0.00  0.00     0.024 H 
ENDBRANCH   2  20
BRANCH   3  24
ATOM     24  C10 non d   1      -0.116  -2.569  -0.370  0.00  0.00    -0.052 C 
ATOM     25  H14 non d   1       0.413  -2.456  -1.322  0.00  0.00     0.024 H 
ATOM     26  H15 non d   1       0.631  -2.850   0.381  0.00  0.00     0.024 H 
ATOM     27  H16 non d   1      -0.821  -3.401  -0.469  0.00  0.00     0.024 H 
ENDBRANCH   3  24
TORSDOF 3
