REMARK  3 active torsions:
REMARK  status: ('A' for Active; 'I' for Inactive)
REMARK    1  A    between atoms: C3_3  and  C12_12 
REMARK    2  A    between atoms: C3_3  and  C13_13 
REMARK    3  A    between atoms: C6_6  and  C14_14 
ROOT
ATOM      1  C1  non d   1       3.427   0.107  -1.743  0.00  0.00    -0.023 C 
ATOM      2  C2  non d   1       4.324   0.328  -0.478  0.00  0.00    -0.030 C 
ATOM      3  C3  non d   1       3.491   1.258   0.472  0.00  0.00    -0.025 C 
ATOM      4  C4  non d   1       2.063   1.240  -0.167  0.00  0.00    -0.015 C 
ATOM      5  C5  non d   1       2.392   1.250  -1.660  0.00  0.00    -0.040 C 
ATOM      6  C6  non d   1       4.357   0.259  -2.964  0.00  0.00    -0.038 C 
ATOM      7  C7  non d   1       5.672   0.831  -1.015  0.00  0.00    -0.049 C 
ATOM      8  C8  non d   1       2.635  -1.217  -1.655  0.00  0.00    -0.043 C 
ATOM      9  C9  non d   1       5.427   1.238  -2.463  0.00  0.00    -0.050 C 
ATOM     10  C10 non d   1       1.226  -0.007   0.096  0.00  0.00    -0.083 C 
ATOM     11  C11 non d   1       1.797  -1.329  -0.370  0.00  0.00    -0.031 C 
ATOM     12  C15 non d   1       0.017   0.067   0.676  0.00  0.00    -0.090 C 
ATOM     13  H1  non d   1       4.515  -0.631   0.022  0.00  0.00     0.031 H 
ATOM     14  H2  non d   1       1.497   2.139   0.104  0.00  0.00     0.035 H 
ATOM     15  H3  non d   1       1.515   1.068  -2.295  0.00  0.00     0.028 H 
ATOM     16  H4  non d   1       2.805   2.215  -1.969  0.00  0.00     0.028 H 
ATOM     17  H5  non d   1       3.820   0.699  -3.813  0.00  0.00     0.030 H 
ATOM     18  H6  non d   1       6.388  -0.001  -1.000  0.00  0.00     0.027 H 
ATOM     19  H7  non d   1       6.133   1.630  -0.430  0.00  0.00     0.027 H 
ATOM     20  H8  non d   1       1.970  -1.298  -2.525  0.00  0.00     0.028 H 
ATOM     21  H9  non d   1       3.305  -2.083  -1.692  0.00  0.00     0.028 H 
ATOM     22  H10 non d   1       6.347   1.205  -3.055  0.00  0.00     0.027 H 
ATOM     23  H11 non d   1       5.051   2.267  -2.505  0.00  0.00     0.027 H 
ATOM     24  H12 non d   1       1.001  -2.067  -0.531  0.00  0.00     0.031 H 
ATOM     25  H13 non d   1       2.429  -1.736   0.427  0.00  0.00     0.031 H 
ATOM     26  H23 non d   1      -0.584  -0.821   0.848  0.00  0.00     0.054 H 
ATOM     27  H24 non d   1      -0.402   1.015   0.997  0.00  0.00     0.054 H 
ENDROOT
BRANCH   3  28
ATOM     28  C12 non d   1       3.511   0.738   1.921  0.00  0.00    -0.059 C 
ATOM     29  H14 non d   1       3.203  -0.308   2.000  0.00  0.00     0.024 H 
ATOM     30  H15 non d   1       2.843   1.328   2.558  0.00  0.00     0.024 H 
ATOM     31  H16 non d   1       4.521   0.802   2.342  0.00  0.00     0.024 H 
ENDBRANCH   3  28
BRANCH   3  32
ATOM     32  C13 non d   1       3.998   2.718   0.529  0.00  0.00    -0.059 C 
ATOM     33  H17 non d   1       4.969   2.786   1.032  0.00  0.00     0.024 H 
ATOM     34  H18 non d   1       4.103   3.170  -0.461  0.00  0.00     0.024 H 
ATOM     35  H19 non d   1       3.303   3.346   1.098  0.00  0.00     0.024 H 
ENDBRANCH   3  32
BRANCH   6  36
ATOM     36  C14 non d   1       5.001  -1.042  -3.449  0.00  0.00    -0.062 C 
ATOM     37  H20 non d   1       5.734  -0.837  -4.237  0.00  0.00     0.023 H 
ATOM     38  H21 non d   1       5.517  -1.573  -2.642  0.00  0.00     0.023 H 
ATOM     39  H22 non d   1       4.249  -1.714  -3.873  0.00  0.00     0.023 H 
ENDBRANCH   6  36
TORSDOF 3
