REMARK  3 active torsions:
REMARK  status: ('A' for Active; 'I' for Inactive)
REMARK    1  A    between atoms: C1_1  and  C10_10 
REMARK    2  A    between atoms: C6_6  and  C12_12 
REMARK    3  A    between atoms: C12_12  and  C14_14 
ROOT
ATOM      1  C1  non d   1       3.563   1.217   0.358  0.00  0.00    -0.026 C 
ATOM      2  C2  non d   1       2.055   1.298  -0.038  0.00  0.00    -0.015 C 
ATOM      3  C3  non d   1       4.265   2.538  -0.048  0.00  0.00    -0.047 C 
ATOM      4  C4  non d   1       1.368   2.538   0.573  0.00  0.00    -0.040 C 
ATOM      5  C5  non d   1       4.225   0.045  -0.420  0.00  0.00    -0.047 C 
ATOM      6  C6  non d   1       2.090   3.834   0.158  0.00  0.00    -0.020 C 
ATOM      7  C7  non d   1       3.584   3.788   0.516  0.00  0.00    -0.046 C 
ATOM      8  C8  non d   1       1.368  -0.040   0.208  0.00  0.00    -0.083 C 
ATOM      9  C9  non d   1       3.501  -1.293  -0.238  0.00  0.00    -0.049 C 
ATOM     10  C11 non d   1       2.006  -1.188  -0.542  0.00  0.00    -0.032 C 
ATOM     11  C13 non d   1       0.302  -0.239   1.001  0.00  0.00    -0.090 C 
ATOM     12  H1  non d   1       2.009   1.448  -1.129  0.00  0.00     0.035 H 
ATOM     13  H2  non d   1       5.314   2.525   0.275  0.00  0.00     0.027 H 
ATOM     14  H3  non d   1       4.282   2.623  -1.142  0.00  0.00     0.027 H 
ATOM     15  H4  non d   1       1.333   2.451   1.665  0.00  0.00     0.028 H 
ATOM     16  H5  non d   1       0.326   2.587   0.228  0.00  0.00     0.028 H 
ATOM     17  H6  non d   1       5.274  -0.068  -0.117  0.00  0.00     0.027 H 
ATOM     18  H7  non d   1       4.239   0.282  -1.493  0.00  0.00     0.027 H 
ATOM     19  H8  non d   1       2.037   3.880  -0.941  0.00  0.00     0.035 H 
ATOM     20  H9  non d   1       3.727   3.821   1.602  0.00  0.00     0.027 H 
ATOM     21  H10 non d   1       4.088   4.677   0.115  0.00  0.00     0.027 H 
ATOM     22  H11 non d   1       3.645  -1.659   0.785  0.00  0.00     0.027 H 
ATOM     23  H12 non d   1       3.954  -2.042  -0.898  0.00  0.00     0.027 H 
ATOM     24  H16 non d   1       1.524  -2.143  -0.301  0.00  0.00     0.031 H 
ATOM     25  H17 non d   1       1.863  -1.028  -1.618  0.00  0.00     0.031 H 
ATOM     26  H18 non d   1      -0.132  -1.227   1.125  0.00  0.00     0.054 H 
ATOM     27  H19 non d   1      -0.173   0.565   1.552  0.00  0.00     0.054 H 
ENDROOT
BRANCH   6  28
ATOM     28  C12 non d   1       1.405   5.079   0.709  0.00  0.00    -0.085 C 
ATOM     29  C15 non d   1       0.885   6.004  -0.118  0.00  0.00    -0.092 C 
ATOM     30  H23 non d   1       0.394   6.895   0.261  0.00  0.00     0.054 H 
ATOM     31  H24 non d   1       0.935   5.898  -1.198  0.00  0.00     0.054 H 
BRANCH  28  32
ATOM     32  C14 non d   1       1.319   5.255   2.202  0.00  0.00    -0.044 C 
ATOM     33  H20 non d   1       0.753   4.438   2.659  0.00  0.00     0.028 H 
ATOM     34  H21 non d   1       2.316   5.287   2.650  0.00  0.00     0.028 H 
ATOM     35  H22 non d   1       0.813   6.188   2.473  0.00  0.00     0.028 H 
ENDBRANCH  28  32
ENDBRANCH   6  28
BRANCH   1  36
ATOM     36  C10 non d   1       3.760   0.985   1.877  0.00  0.00    -0.059 C 
ATOM     37  H13 non d   1       3.346   1.797   2.482  0.00  0.00     0.024 H 
ATOM     38  H14 non d   1       4.826   0.913   2.121  0.00  0.00     0.024 H 
ATOM     39  H15 non d   1       3.285   0.062   2.224  0.00  0.00     0.024 H 
ENDBRANCH   1  36
TORSDOF 3
