@<TRIPOS>MOLECULE
5371125
 26 25 0 0 0
SMALL
USER_CHARGES

@<TRIPOS>ATOM
      1 C1          2.2006   -2.9001    3.4964 C.2     1  noname1    -0.0717
      2 C2          0.1889   -0.2755   -0.2604 C.2     1  noname1    -0.0654
      3 C3          1.2735   -2.6404    2.5535 C.2     1  noname1    -0.0667
      4 C4          0.2832   -1.3597    0.7139 C.2     1  noname1    -0.0608
      5 C5          1.2610   -1.5311    1.6211 C.2     1  noname1    -0.0623
      6 C6          2.0545   -4.1082    4.3874 C.3     1  noname1    -0.0439
      7 C7          3.4320   -2.0836    3.7825 C.3     1  noname1    -0.0439
      8 C8          1.2832    0.7675   -0.2653 C.3     1  noname1    -0.0401
      9 C9         -0.8222   -0.1630   -1.1472 C.2     1  noname1    -0.0745
     10 C10        -2.0145   -1.0445   -1.3543 C.3     1  noname1    -0.0464
     11 H1          0.4304   -3.3263    2.4633 H       1  noname1     0.0621
     12 H2         -0.5178   -2.0936    0.6980 H       1  noname1     0.0625
     13 H3          2.0806   -0.8245    1.6748 H       1  noname1     0.0622
     14 H4          1.1528   -4.6875    4.1622 H       1  noname1     0.0276
     15 H5          1.9970   -3.8002    5.4366 H       1  noname1     0.0276
     16 H6          2.9152   -4.7743    4.2664 H       1  noname1     0.0276
     17 H7          3.4120   -1.7265    4.8178 H       1  noname1     0.0276
     18 H8          3.5417   -1.2078    3.1402 H       1  noname1     0.0276
     19 H9          4.3283   -2.6988    3.6490 H       1  noname1     0.0276
     20 H10         2.2554    0.3086   -0.4758 H       1  noname1     0.0279
     21 H11         1.3329    1.2821    0.7005 H       1  noname1     0.0279
     22 H12         1.1206    1.5363   -1.0291 H       1  noname1     0.0279
     23 H13        -0.8042    0.6837   -1.8340 H       1  noname1     0.0575
     24 H14        -2.9293   -0.4631   -1.2013 H       1  noname1     0.0273
     25 H15        -2.0187   -1.4164   -2.3839 H       1  noname1     0.0273
     26 H16        -2.0552   -1.9089   -0.6902 H       1  noname1     0.0273
@<TRIPOS>BOND
     1     1     3    2
     2     1     6    1
     3     1     7    1
     4     2     4    1
     5     2     8    1
     6     2     9    2
     7     3     5    1
     8     3    11    1
     9     4     5    2
    10     4    12    1
    11     5    13    1
    12     6    14    1
    13     6    15    1
    14     6    16    1
    15     7    17    1
    16     7    18    1
    17     7    19    1
    18     8    20    1
    19     8    21    1
    20     8    22    1
    21     9    10    1
    22     9    23    1
    23    10    24    1
    24    10    25    1
    25    10    26    1
