@<TRIPOS>MOLECULE
26049
 26 27 0 0 0
SMALL
USER_CHARGES

@<TRIPOS>ATOM
      1 C1         -0.7181    2.9244    1.8984 C.3     1  noname11   -0.0285
      2 C2         -0.1434    2.9125    0.4853 C.3     1  noname11   -0.0286
      3 C3         -1.5784    2.4960    0.7137 C.3     1  noname11   -0.0288
      4 C4          0.8662    1.9025    0.0136 C.3     1  noname11   -0.0286
      5 C5         -1.9890    1.0739    0.4630 C.3     1  noname11   -0.0311
      6 C6         -0.2615    1.9135    2.9213 C.3     1  noname11   -0.0593
      7 C7         -1.0138    4.2766    2.5047 C.3     1  noname11   -0.0593
      8 C8          0.3545    0.5092   -0.2704 C.2     1  noname11   -0.0798
      9 C9         -0.9266    0.1531   -0.0655 C.2     1  noname11   -0.0823
     10 C10         1.3733   -0.4625   -0.7923 C.3     1  noname11   -0.0439
     11 H1          0.0311    3.8755    0.0150 H       1  noname11    0.0314
     12 H2         -2.3578    3.1814    0.3953 H       1  noname11    0.0314
     13 H3          1.6810    1.8484    0.7458 H       1  noname11    0.0315
     14 H4          1.3094    2.2881   -0.9138 H       1  noname11    0.0315
     15 H5         -2.4057    0.6494    1.3837 H       1  noname11    0.0313
     16 H6         -2.8065    1.0807   -0.2689 H       1  noname11    0.0313
     17 H7          0.6483    2.2679    3.4176 H       1  noname11    0.0236
     18 H8         -1.0343    1.7791    3.6858 H       1  noname11    0.0236
     19 H9         -0.0419    0.9289    2.5039 H       1  noname11    0.0236
     20 H10        -0.1182    4.6805    2.9881 H       1  noname11    0.0236
     21 H11        -1.3440    5.0012    1.7525 H       1  noname11    0.0236
     22 H12        -1.8047    4.1913    3.2571 H       1  noname11    0.0236
     23 H13        -1.2482   -0.8630   -0.2810 H       1  noname11    0.0575
     24 H14         1.7906   -0.1038   -1.7387 H       1  noname11    0.0276
     25 H15         0.9442   -1.4539   -0.9715 H       1  noname11    0.0276
     26 H16         2.1903   -0.5782   -0.0727 H       1  noname11    0.0276
@<TRIPOS>BOND
     1     1     2    1
     2     1     3    1
     3     1     6    1
     4     1     7    1
     5     2     3    1
     6     2     4    1
     7     2    11    1
     8     3     5    1
     9     3    12    1
    10     4     8    1
    11     4    13    1
    12     4    14    1
    13     5     9    1
    14     5    15    1
    15     5    16    1
    16     6    17    1
    17     6    18    1
    18     6    19    1
    19     7    20    1
    20     7    21    1
    21     7    22    1
    22     8     9    2
    23     8    10    1
    24     9    23    1
    25    10    24    1
    26    10    25    1
    27    10    26    1
