@<TRIPOS>MOLECULE
10703
 24 24 0 0 0
SMALL
USER_CHARGES

@<TRIPOS>ATOM
      1 C1         -0.2588   -0.3951   -2.4790 C.3     1  noname11    0.0093
      2 C2         -0.3866   -1.6093   -1.5478 C.ar    1  noname11   -0.0618
      3 C3          0.3813   -1.7581   -0.4260 C.ar    1  noname11   -0.0615
      4 C4         -1.5531    0.4254   -2.5340 C.3     1  noname11   -0.0587
      5 C5          0.1885   -0.7972   -3.8896 C.3     1  noname11   -0.0587
      6 C6         -1.2948   -2.5763   -1.8431 C.ar    1  noname11   -0.0659
      7 C7          0.2154   -2.8564    0.3521 C.ar    1  noname11   -0.0681
      8 C8          1.4185   -0.7426   -0.0088 C.3     1  noname11   -0.0019
      9 C9         -1.4468   -3.6599   -1.0605 C.ar    1  noname11   -0.0717
     10 C10        -0.6901   -3.8007    0.0399 C.ar    1  noname11   -0.0709
     11 H1          0.5121    0.2864   -2.1032 H       1  noname11    0.0346
     12 H2         -1.4008    1.3409   -3.1161 H       1  noname11    0.0236
     13 H3         -2.3729   -0.1296   -3.0023 H       1  noname11    0.0236
     14 H4         -1.8722    0.7202   -1.5282 H       1  noname11    0.0236
     15 H5          0.3767    0.0935   -4.4993 H       1  noname11    0.0236
     16 H6         -0.5689   -1.3957   -4.4068 H       1  noname11    0.0236
     17 H7          1.1165   -1.3784   -3.8547 H       1  noname11    0.0236
     18 H8         -1.9226   -2.4922   -2.7264 H       1  noname11    0.0625
     19 H9          0.8160   -2.9931    1.2480 H       1  noname11    0.0625
     20 H10         2.1881   -0.6350   -0.7809 H       1  noname11    0.0280
     21 H11         0.9536    0.2309    0.1806 H       1  noname11    0.0280
     22 H12         1.9340   -1.0325    0.9140 H       1  noname11    0.0280
     23 H13        -2.1796   -4.4190   -1.3178 H       1  noname11    0.0622
     24 H14        -0.8088   -4.6735    0.6751 H       1  noname11    0.0622
@<TRIPOS>BOND
     1     1     2    1
     2     1     4    1
     3     1     5    1
     4     1    11    1
     5     2     3   ar
     6     2     6   ar
     7     3     7   ar
     8     3     8    1
     9     4    12    1
    10     4    13    1
    11     4    14    1
    12     5    15    1
    13     5    16    1
    14     5    17    1
    15     6     9   ar
    16     6    18    1
    17     7    10   ar
    18     7    19    1
    19     8    20    1
    20     8    21    1
    21     8    22    1
    22     9    10   ar
    23     9    23    1
    24    10    24    1
