REMARK  4 active torsions:
REMARK  status: ('A' for Active; 'I' for Inactive)
REMARK    1  A    between atoms: C2_2  and  C8_8 
REMARK    2  A    between atoms: C2_2  and  C9_9 
REMARK    3  A    between atoms: C4_4  and  C11_11 
REMARK    4  A    between atoms: C6_6  and  C15_15 
ROOT
ATOM      1  C1  non d   1       1.920   0.423   2.392  0.00  0.00    -0.023 C 
ATOM      2  C2  non d   1       3.063   1.360   2.835  0.00  0.00    -0.028 C 
ATOM      3  C3  non d   1       2.862   0.010   3.504  0.00  0.00    -0.028 C 
ATOM      4  C4  non d   1       1.805  -0.505   1.171  0.00  0.00    -0.005 C 
ATOM      5  C5  non d   1       3.836  -1.114   3.295  0.00  0.00    -0.031 C 
ATOM      6  C6  non d   1       1.365   0.307  -0.105  0.00  0.00    -0.035 C 
ATOM      7  C7  non d   1       3.023  -1.406   0.928  0.00  0.00    -0.073 C 
ATOM      8  C10 non d   1       3.914  -1.674   1.904  0.00  0.00    -0.079 C 
ATOM      9  C12 non d   1       1.401  -0.557  -1.383  0.00  0.00    -0.050 C 
ATOM     10  C13 non d   1       3.131  -2.105  -0.407  0.00  0.00    -0.031 C 
ATOM     11  C14 non d   1       2.759  -1.220  -1.589  0.00  0.00    -0.049 C 
ATOM     12  H1  non d   1       0.927   0.766   2.683  0.00  0.00     0.032 H 
ATOM     13  H2  non d   1       2.477   0.004   4.519  0.00  0.00     0.032 H 
ATOM     14  H3  non d   1       4.833  -0.777   3.599  0.00  0.00     0.031 H 
ATOM     15  H4  non d   1       3.570  -1.938   3.970  0.00  0.00     0.031 H 
ATOM     16  H5  non d   1       0.322   0.623   0.039  0.00  0.00     0.031 H 
ATOM     17  H12 non d   1       4.738  -2.359   1.716  0.00  0.00     0.058 H 
ATOM     18  H16 non d   1       1.159   0.054  -2.261  0.00  0.00     0.027 H 
ATOM     19  H17 non d   1       0.623  -1.329  -1.334  0.00  0.00     0.027 H 
ATOM     20  H18 non d   1       4.144  -2.493  -0.566  0.00  0.00     0.031 H 
ATOM     21  H19 non d   1       2.465  -2.977  -0.395  0.00  0.00     0.031 H 
ATOM     22  H20 non d   1       3.535  -0.463  -1.747  0.00  0.00     0.027 H 
ATOM     23  H21 non d   1       2.730  -1.829  -2.501  0.00  0.00     0.027 H 
ENDROOT
BRANCH   2  24
ATOM     24  C8  non d   1       4.318   1.603   2.033  0.00  0.00    -0.059 C 
ATOM     25  H6  non d   1       4.251   2.557   1.499  0.00  0.00     0.024 H 
ATOM     26  H7  non d   1       5.181   1.666   2.705  0.00  0.00     0.024 H 
ATOM     27  H8  non d   1       4.533   0.834   1.292  0.00  0.00     0.024 H 
ENDBRANCH   2  24
BRANCH   2  28
ATOM     28  C9  non d   1       2.663   2.576   3.643  0.00  0.00    -0.059 C 
ATOM     29  H9  non d   1       3.481   2.882   4.303  0.00  0.00     0.024 H 
ATOM     30  H10 non d   1       1.783   2.385   4.268  0.00  0.00     0.024 H 
ATOM     31  H11 non d   1       2.424   3.412   2.977  0.00  0.00     0.024 H 
ENDBRANCH   2  28
BRANCH   4  32
ATOM     32  C11 non d   1       0.642  -1.495   1.515  0.00  0.00    -0.055 C 
ATOM     33  H13 non d   1       0.470  -2.239   0.731  0.00  0.00     0.024 H 
ATOM     34  H14 non d   1       0.847  -2.041   2.444  0.00  0.00     0.024 H 
ATOM     35  H15 non d   1      -0.302  -0.957   1.668  0.00  0.00     0.024 H 
ENDBRANCH   4  32
BRANCH   6  36
ATOM     36  C15 non d   1       2.143   1.602  -0.367  0.00  0.00    -0.062 C 
ATOM     37  H22 non d   1       1.783   2.088  -1.281  0.00  0.00     0.023 H 
ATOM     38  H23 non d   1       3.213   1.424  -0.496  0.00  0.00     0.023 H 
ATOM     39  H24 non d   1       1.995   2.324   0.441  0.00  0.00     0.023 H 
ENDBRANCH   6  36
TORSDOF 4
