@<TRIPOS>MOLECULE
91746870
39 40 1
SMALL
USER_CHARGES
@<TRIPOS>ATOM
1	C1    -0.2399     2.5883     0.8552	C.3	1	noname	0.0066
2	C2     2.0403     3.5899    -0.9011	C.3	1	noname	-0.0353
3	C3    -0.2513     3.9997     0.2264	C.3	1	noname	-0.0403
4	C4     1.1360     4.5510    -0.1104	C.3	1	noname	-0.0488
5	C5     0.5897     1.6445    -0.0340	C.2	1	noname	-0.0639
6	C6     1.9867     2.1558    -0.3288	C.3	1	noname	-0.0278
7	C7     1.8851     3.6347    -2.4528	C.3	1	noname	-0.0439
8	C8     0.0934     0.4769    -0.5167	C.2	1	noname	-0.0664
9	C9    -1.6869     2.1469     0.9999	C.2	1	noname	-0.0800
10	C10     0.3461     2.6274     2.2830	C.3	1	noname	-0.0523
11	C11    -1.3349     0.0310    -0.2691	C.3	1	noname	-0.0138
12	C12    -2.1696     1.0036     0.4985	C.2	1	noname	-0.0817
13	C13     0.4752     3.4123    -2.9958	C.3	1	noname	-0.0625
14	C14     2.4356     4.9496    -3.0250	C.3	1	noname	-0.0625
15	C15     0.8610    -0.5121    -1.3580	C.3	1	noname	-0.0433
16	H1     3.0709     3.9288    -0.7145	H	1	noname	0.0308
17	H2    -0.8679     3.9957    -0.6798	H	1	noname	0.0279
18	H3    -0.7434     4.7092     0.9064	H	1	noname	0.0279
19	H4     1.0272     5.5072    -0.6329	H	1	noname	0.0270
20	H5     1.6430     4.7937     0.8328	H	1	noname	0.0270
21	H6     2.5440     1.5013    -1.0029	H	1	noname	0.0316
22	H7     2.5561     2.1344     0.6094	H	1	noname	0.0316
23	H8     2.5168     2.8356    -2.8645	H	1	noname	0.0300
24	H9    -2.3564     2.7999     1.5559	H	1	noname	0.0581
25	H10     1.3715     3.0090     2.3093	H	1	noname	0.0242
26	H11     0.3608     1.6270     2.7337	H	1	noname	0.0242
27	H12    -0.2487     3.2742     2.9400	H	1	noname	0.0242
28	H13    -1.8221    -0.1443    -1.2361	H	1	noname	0.0355
29	H14    -1.3269    -0.9211     0.2751	H	1	noname	0.0355
30	H15    -3.2143     0.7480     0.6508	H	1	noname	0.0576
31	H16     0.0315     2.4880    -2.6224	H	1	noname	0.0233
32	H17    -0.1885     4.2474    -2.7542	H	1	noname	0.0233
33	H18     0.5009     3.3333    -4.0890	H	1	noname	0.0233
34	H19     3.4646     5.1218    -2.6924	H	1	noname	0.0233
35	H20     1.8307     5.8107    -2.7252	H	1	noname	0.0233
36	H21     2.4459     4.9174    -4.1201	H	1	noname	0.0233
37	H22     0.6468    -1.5351    -1.0283	H	1	noname	0.0276
38	H23     1.9445    -0.4003    -1.2938	H	1	noname	0.0276
39	H24     0.5629    -0.4226    -2.4075	H	1	noname	0.0276
@<TRIPOS>BOND
1	1	3	1
2	1	5	1
3	1	9	1
4	1	10	1
5	2	4	1
6	2	6	1
7	2	7	1
8	2	16	1
9	3	4	1
10	3	17	1
11	3	18	1
12	4	19	1
13	4	20	1
14	5	6	1
15	5	8	2
16	6	21	1
17	6	22	1
18	7	13	1
19	7	14	1
20	7	23	1
21	8	11	1
22	8	15	1
23	9	12	2
24	9	24	1
25	10	25	1
26	10	26	1
27	10	27	1
28	11	12	1
29	11	28	1
30	11	29	1
31	12	30	1
32	13	31	1
33	13	32	1
34	13	33	1
35	14	34	1
36	14	35	1
37	14	36	1
38	15	37	1
39	15	38	1
40	15	39	1
@<TRIPOS>SUBSTRUCTURE
1	noname	1
