@<TRIPOS>MOLECULE
6616
 26 27 0 0 0
SMALL
USER_CHARGES

@<TRIPOS>ATOM
      1 C1          3.5950    0.5664    0.0025 C.3     1  noname1    -0.0319
      2 C2          2.1767    1.2287   -0.0144 C.3     1  noname1    -0.0116
      3 C3          2.2597   -1.2248    0.0002 C.3     1  noname1    -0.0197
      4 C4          3.3901   -0.6816   -0.8712 C.3     1  noname1    -0.0430
      5 C5          3.9071   -0.1109    1.3564 C.3     1  noname1    -0.0490
      6 C6          2.9331   -1.3036    1.3803 C.3     1  noname1    -0.0464
      7 C7          1.3176   -0.0336    0.0098 C.2     1  noname1    -0.0789
      8 C8          1.9169    2.1452    1.1891 C.3     1  noname1    -0.0559
      9 C9          1.9655    2.0424   -1.3045 C.3     1  noname1    -0.0559
     10 C10        -0.0190   -0.1064    0.0021 C.2     1  noname1    -0.0883
     11 H1          4.3952    1.2303   -0.3349 H       1  noname1     0.0311
     12 H2          1.8144   -2.1612   -0.3414 H       1  noname1     0.0349
     13 H3          4.2673   -1.3384   -0.8922 H       1  noname1     0.0276
     14 H4          3.0893   -0.4681   -1.9011 H       1  noname1     0.0276
     15 H5          4.9404   -0.4790    1.3650 H       1  noname1     0.0270
     16 H6          3.7918    0.5457    2.2218 H       1  noname1     0.0270
     17 H7          3.4899   -2.2405    1.4937 H       1  noname1     0.0273
     18 H8          2.2169   -1.2290    2.2057 H       1  noname1     0.0273
     19 H9          2.7120    2.8925    1.2873 H       1  noname1     0.0239
     20 H10         0.9679    2.6834    1.0794 H       1  noname1     0.0239
     21 H11         1.8506    1.5920    2.1317 H       1  noname1     0.0239
     22 H12         0.9674    2.4954   -1.3289 H       1  noname1     0.0239
     23 H13         2.0602    1.4352   -2.2101 H       1  noname1     0.0239
     24 H14         2.6985    2.8542   -1.3727 H       1  noname1     0.0239
     25 H15        -0.5301   -1.0640    0.0058 H       1  noname1     0.0537
     26 H16        -0.6336    0.7881   -0.0065 H       1  noname1     0.0537
@<TRIPOS>BOND
     1     1     2    1
     2     1     4    1
     3     1     5    1
     4     1    11    1
     5     2     7    1
     6     2     8    1
     7     2     9    1
     8     3     4    1
     9     3     6    1
    10     3     7    1
    11     3    12    1
    12     4    13    1
    13     4    14    1
    14     5     6    1
    15     5    15    1
    16     5    16    1
    17     6    17    1
    18     6    18    1
    19     7    10    2
    20     8    19    1
    21     8    20    1
    22     8    21    1
    23     9    22    1
    24     9    23    1
    25     9    24    1
    26    10    25    1
    27    10    26    1
