REMARK  5 active torsions:
REMARK  status: ('A' for Active; 'I' for Inactive)
REMARK    1  A    between atoms: C1_1  and  C2_2 
REMARK    2  A    between atoms: C2_2  and  C8_8 
REMARK    3  A    between atoms: C2_2  and  C9_9 
REMARK    4  A    between atoms: C7_7  and  C13_13 
REMARK    5  A    between atoms: C12_12  and  C15_15 
ROOT
ATOM      1  C1  non d   1      -1.300  -3.255  -0.703  0.00  0.00     0.020 C 
ATOM      2  C3  non d   1      -1.925  -3.713  -2.043  0.00  0.00    -0.027 C 
ATOM      3  C4  non d   1      -1.143  -1.718  -0.628  0.00  0.00    -0.046 A 
ATOM      4  C5  non d   1      -1.957  -0.906  -1.371  0.00  0.00    -0.054 A 
ATOM      5  C6  non d   1      -2.983  -2.788  -2.549  0.00  0.00    -0.067 C 
ATOM      6  C7  non d   1      -3.009  -1.483  -2.230  0.00  0.00    -0.053 C 
ATOM      7  C10 non d   1      -0.212  -1.143   0.178  0.00  0.00    -0.065 A 
ATOM      8  C11 non d   1      -1.795   0.438  -1.285  0.00  0.00    -0.053 A 
ATOM      9  C12 non d   1      -0.061   0.197   0.261  0.00  0.00    -0.060 A 
ATOM     10  C14 non d   1      -0.858   0.982  -0.488  0.00  0.00    -0.070 A 
ATOM     11  H1  non d   1      -2.045  -3.486   0.077  0.00  0.00     0.036 H 
ATOM     12  H3  non d   1      -2.384  -4.699  -1.904  0.00  0.00     0.032 H 
ATOM     13  H4  non d   1      -1.170  -3.819  -2.829  0.00  0.00     0.032 H 
ATOM     14  H5  non d   1      -3.735  -3.214  -3.207  0.00  0.00     0.058 H 
ATOM     15  H12 non d   1       0.439  -1.757   0.792  0.00  0.00     0.063 H 
ATOM     16  H13 non d   1      -2.413   1.120  -1.859  0.00  0.00     0.063 H 
ATOM     17  H17 non d   1      -0.758   2.064  -0.451  0.00  0.00     0.062 H 
ENDROOT
BRANCH   1  18
ATOM     18  C2  non d   1      -0.039  -4.118  -0.349  0.00  0.00    -0.040 C 
ATOM     19  H2  non d   1       0.289  -3.844   0.661  0.00  0.00     0.030 H 
BRANCH  18  20
ATOM     20  C8  non d   1       1.147  -3.904  -1.297  0.00  0.00    -0.062 C 
ATOM     21  H6  non d   1       1.418  -2.849  -1.384  0.00  0.00     0.023 H 
ATOM     22  H7  non d   1       0.940  -4.285  -2.302  0.00  0.00     0.023 H 
ATOM     23  H8  non d   1       2.029  -4.437  -0.924  0.00  0.00     0.023 H 
ENDBRANCH  18  20
BRANCH  18  24
ATOM     24  C9  non d   1      -0.366  -5.616  -0.276  0.00  0.00    -0.062 C 
ATOM     25  H9  non d   1      -1.225  -5.797   0.379  0.00  0.00     0.023 H 
ATOM     26  H10 non d   1      -0.589  -6.036  -1.262  0.00  0.00     0.023 H 
ATOM     27  H11 non d   1       0.485  -6.173   0.132  0.00  0.00     0.023 H 
ENDBRANCH  18  24
ENDBRANCH   1  18
BRANCH   6  28
ATOM     28  C13 non d   1      -4.116  -0.609  -2.761  0.00  0.00    -0.040 C 
ATOM     29  H14 non d   1      -3.728   0.121  -3.479  0.00  0.00     0.028 H 
ATOM     30  H15 non d   1      -4.885  -1.193  -3.279  0.00  0.00     0.028 H 
ATOM     31  H16 non d   1      -4.617  -0.078  -1.944  0.00  0.00     0.028 H 
ENDBRANCH   6  28
BRANCH   9  32
ATOM     32  C15 non d   1       0.996   0.796   1.149  0.00  0.00    -0.003 C 
ATOM     33  H18 non d   1       1.304   1.786   0.796  0.00  0.00     0.028 H 
ATOM     34  H19 non d   1       1.897   0.173   1.169  0.00  0.00     0.028 H 
ATOM     35  H20 non d   1       0.620   0.897   2.172  0.00  0.00     0.028 H 
ENDBRANCH   9  32
TORSDOF 5
