REMARK  2 active torsions:
REMARK  status: ('A' for Active; 'I' for Inactive)
REMARK    1  A    between atoms: C1_1  and  C8_8 
REMARK    2  A    between atoms: C1_1  and  C9_9 
ROOT
ATOM      1  C1  non d   1       3.083   1.295   0.954  0.00  0.00    -0.026 C 
ATOM      2  C2  non d   1       3.837   0.332  -0.059  0.00  0.00    -0.035 C 
ATOM      3  C3  non d   1       1.934   1.252  -0.142  0.00  0.00    -0.015 C 
ATOM      4  C4  non d   1       3.093   1.104  -1.192  0.00  0.00    -0.043 C 
ATOM      5  C5  non d   1       3.395  -1.143  -0.019  0.00  0.00    -0.046 C 
ATOM      6  C6  non d   1       1.119  -0.010  -0.077  0.00  0.00    -0.083 C 
ATOM      7  C7  non d   1       1.885  -1.291  -0.317  0.00  0.00    -0.032 C 
ATOM      8  C10 non d   1      -0.182   0.047   0.238  0.00  0.00    -0.090 C 
ATOM      9  H1  non d   1       4.928   0.432  -0.063  0.00  0.00     0.031 H 
ATOM     10  H2  non d   1       1.339   2.165  -0.247  0.00  0.00     0.035 H 
ATOM     11  H3  non d   1       3.560   2.043  -1.508  0.00  0.00     0.028 H 
ATOM     12  H4  non d   1       2.870   0.544  -2.106  0.00  0.00     0.028 H 
ATOM     13  H5  non d   1       3.634  -1.579   0.957  0.00  0.00     0.027 H 
ATOM     14  H6  non d   1       3.962  -1.722  -0.759  0.00  0.00     0.027 H 
ATOM     15  H7  non d   1       1.474  -2.122   0.268  0.00  0.00     0.031 H 
ATOM     16  H8  non d   1       1.765  -1.562  -1.374  0.00  0.00     0.031 H 
ATOM     17  H15 non d   1      -0.780  -0.855   0.315  0.00  0.00     0.054 H 
ATOM     18  H16 non d   1      -0.684   0.991   0.428  0.00  0.00     0.054 H 
ENDROOT
BRANCH   1  19
ATOM     19  C8  non d   1       3.738   2.677   1.146  0.00  0.00    -0.059 C 
ATOM     20  H9  non d   1       3.058   3.352   1.677  0.00  0.00     0.024 H 
ATOM     21  H10 non d   1       4.655   2.587   1.739  0.00  0.00     0.024 H 
ATOM     22  H11 non d   1       4.008   3.166   0.207  0.00  0.00     0.024 H 
ENDBRANCH   1  19
BRANCH   1  23
ATOM     23  C9  non d   1       2.762   0.734   2.346  0.00  0.00    -0.059 C 
ATOM     24  H12 non d   1       2.083   1.405   2.884  0.00  0.00     0.024 H 
ATOM     25  H13 non d   1       3.678   0.633   2.939  0.00  0.00     0.024 H 
ATOM     26  H14 non d   1       2.287  -0.250   2.322  0.00  0.00     0.024 H 
ENDBRANCH   1  23
TORSDOF 2
