@<TRIPOS>MOLECULE
518814
 39 41 0 0 0
SMALL
USER_CHARGES

@<TRIPOS>ATOM
      1 C1          3.5892    0.7719   -0.1721 C.3     1  noname1    -0.0163
      2 C2          2.9763    1.2742   -1.4634 C.3     1  noname1    -0.0247
      3 C3          2.1322    1.1780   -0.2103 C.3     1  noname1    -0.0107
      4 C4          4.6919    1.6487    0.4005 C.3     1  noname1    -0.0377
      5 C5          3.4889    2.5772   -2.0291 C.3     1  noname1    -0.0351
      6 C6          3.6531   -0.7288    0.0525 C.3     1  noname1    -0.0427
      7 C7          1.3338   -0.0423   -0.0107 C.2     1  noname1    -0.0824
      8 C8          2.2195   -1.2632   -0.1293 C.3     1  noname1    -0.0314
      9 C9          4.3474    3.1498    0.3466 C.3     1  noname1    -0.0498
     10 C10         3.6972    3.6499   -0.9505 C.3     1  noname1    -0.0496
     11 C11         2.6193    3.0443   -3.2309 C.3     1  noname1    -0.0439
     12 C12         5.0634    1.2882    1.8416 C.3     1  noname1    -0.0619
     13 C13         0.0258   -0.1029    0.2671 C.2     1  noname1    -0.0904
     14 C14         1.1726    3.3829   -2.8577 C.3     1  noname1    -0.0625
     15 C15         3.2538    4.2282   -3.9669 C.3     1  noname1    -0.0625
     16 H1          2.8164    0.5459   -2.2534 H       1  noname1     0.0318
     17 H2          1.8086    2.0677    0.3112 H       1  noname1     0.0357
     18 H3          5.5847    1.4885   -0.2190 H       1  noname1     0.0306
     19 H4          4.4835    2.3470   -2.4387 H       1  noname1     0.0308
     20 H5          4.3469   -1.2075   -0.6466 H       1  noname1     0.0276
     21 H6          3.9795   -0.9709    1.0681 H       1  noname1     0.0276
     22 H7          2.1100   -1.7007   -1.1284 H       1  noname1     0.0312
     23 H8          1.9869   -2.0311    0.6153 H       1  noname1     0.0312
     24 H9          5.2590    3.7324    0.5342 H       1  noname1     0.0269
     25 H10         3.6717    3.3983    1.1768 H       1  noname1     0.0269
     26 H11         4.3101    4.4640   -1.3561 H       1  noname1     0.0270
     27 H12         2.7398    4.1112   -0.6818 H       1  noname1     0.0270
     28 H13         2.5757    2.2117   -3.9468 H       1  noname1     0.0300
     29 H14         5.7792    2.0074    2.2546 H       1  noname1     0.0233
     30 H15         5.5375    0.3032    1.8953 H       1  noname1     0.0233
     31 H16         4.1792    1.2747    2.4882 H       1  noname1     0.0233
     32 H17        -0.4780   -1.0531    0.4095 H       1  noname1     0.0537
     33 H18        -0.5693    0.8005    0.3526 H       1  noname1     0.0537
     34 H19         0.6772    2.5394   -2.3683 H       1  noname1     0.0233
     35 H20         1.1121    4.2502   -2.1938 H       1  noname1     0.0233
     36 H21         0.5940    3.6202   -3.7576 H       1  noname1     0.0233
     37 H22         4.2898    4.0066   -4.2436 H       1  noname1     0.0233
     38 H23         3.2477    5.1368   -3.3565 H       1  noname1     0.0233
     39 H24         2.7038    4.4461   -4.8889 H       1  noname1     0.0233
@<TRIPOS>BOND
     1     1     2    1
     2     1     3    1
     3     1     4    1
     4     1     6    1
     5     2     3    1
     6     2     5    1
     7     2    16    1
     8     3     7    1
     9     3    17    1
    10     4     9    1
    11     4    12    1
    12     4    18    1
    13     5    10    1
    14     5    11    1
    15     5    19    1
    16     6     8    1
    17     6    20    1
    18     6    21    1
    19     7     8    1
    20     7    13    2
    21     8    22    1
    22     8    23    1
    23     9    10    1
    24     9    24    1
    25     9    25    1
    26    10    26    1
    27    10    27    1
    28    11    14    1
    29    11    15    1
    30    11    28    1
    31    12    29    1
    32    12    30    1
    33    12    31    1
    34    13    32    1
    35    13    33    1
    36    14    34    1
    37    14    35    1
    38    14    36    1
    39    15    37    1
    40    15    38    1
    41    15    39    1
