REMARK  2 active torsions:
REMARK  status: ('A' for Active; 'I' for Inactive)
REMARK    1  A    between atoms: C2_2  and  C8_8 
REMARK    2  A    between atoms: C2_2  and  C9_9 
ROOT
ATOM      1  C1  non d   1       3.595   0.566   0.003  0.00  0.00    -0.032 C 
ATOM      2  C2  non d   1       2.177   1.229  -0.014  0.00  0.00    -0.012 C 
ATOM      3  C3  non d   1       2.260  -1.225   0.000  0.00  0.00    -0.020 C 
ATOM      4  C4  non d   1       3.390  -0.682  -0.871  0.00  0.00    -0.043 C 
ATOM      5  C5  non d   1       3.907  -0.111   1.356  0.00  0.00    -0.049 C 
ATOM      6  C6  non d   1       2.933  -1.304   1.380  0.00  0.00    -0.046 C 
ATOM      7  C7  non d   1       1.318  -0.034   0.010  0.00  0.00    -0.079 C 
ATOM      8  C10 non d   1      -0.019  -0.106   0.002  0.00  0.00    -0.088 C 
ATOM      9  H1  non d   1       4.395   1.230  -0.335  0.00  0.00     0.031 H 
ATOM     10  H2  non d   1       1.814  -2.161  -0.341  0.00  0.00     0.035 H 
ATOM     11  H3  non d   1       4.267  -1.338  -0.892  0.00  0.00     0.028 H 
ATOM     12  H4  non d   1       3.089  -0.468  -1.901  0.00  0.00     0.028 H 
ATOM     13  H5  non d   1       4.940  -0.479   1.365  0.00  0.00     0.027 H 
ATOM     14  H6  non d   1       3.792   0.546   2.222  0.00  0.00     0.027 H 
ATOM     15  H7  non d   1       3.490  -2.240   1.494  0.00  0.00     0.027 H 
ATOM     16  H8  non d   1       2.217  -1.229   2.206  0.00  0.00     0.027 H 
ATOM     17  H15 non d   1      -0.530  -1.064   0.006  0.00  0.00     0.054 H 
ATOM     18  H16 non d   1      -0.634   0.788  -0.006  0.00  0.00     0.054 H 
ENDROOT
BRANCH   2  19
ATOM     19  C8  non d   1       1.917   2.145   1.189  0.00  0.00    -0.056 C 
ATOM     20  H9  non d   1       2.712   2.893   1.287  0.00  0.00     0.024 H 
ATOM     21  H10 non d   1       0.968   2.683   1.079  0.00  0.00     0.024 H 
ATOM     22  H11 non d   1       1.851   1.592   2.132  0.00  0.00     0.024 H 
ENDBRANCH   2  19
BRANCH   2  23
ATOM     23  C9  non d   1       1.966   2.042  -1.304  0.00  0.00    -0.056 C 
ATOM     24  H12 non d   1       0.967   2.495  -1.329  0.00  0.00     0.024 H 
ATOM     25  H13 non d   1       2.060   1.435  -2.210  0.00  0.00     0.024 H 
ATOM     26  H14 non d   1       2.699   2.854  -1.373  0.00  0.00     0.024 H 
ENDBRANCH   2  23
TORSDOF 2
