REMARK  6 active torsions:
REMARK  status: ('A' for Active; 'I' for Inactive)
REMARK    1  A    between atoms: C1_1  and  C7_7 
REMARK    2  A    between atoms: C1_1  and  C9_9 
REMARK    3  A    between atoms: C2_2  and  C8_8 
REMARK    4  A    between atoms: C3_3  and  C10_10 
REMARK    5  A    between atoms: C8_8  and  C11_11 
REMARK    6  A    between atoms: C10_10  and  C12_12 
ROOT
ATOM      1  C1  non d   1       0.099  -0.406   3.719  0.00  0.00    -0.008 C 
ATOM      2  C2  non d   1      -0.149   0.847   2.789  0.00  0.00    -0.011 C 
ATOM      3  C3  non d   1       1.575  -0.094   1.046  0.00  0.00    -0.020 C 
ATOM      4  C4  non d   1       1.062   1.119   1.857  0.00  0.00    -0.039 C 
ATOM      5  C5  non d   1       0.646  -1.612   2.912  0.00  0.00    -0.043 C 
ATOM      6  C6  non d   1       1.829  -1.280   1.996  0.00  0.00    -0.046 C 
ATOM      7  H1  non d   1      -0.173   1.701   3.486  0.00  0.00     0.036 H 
ATOM      8  H2  non d   1       2.571   0.194   0.672  0.00  0.00     0.035 H 
ATOM      9  H3  non d   1       1.897   1.468   2.482  0.00  0.00     0.028 H 
ATOM     10  H4  non d   1       0.857   1.970   1.198  0.00  0.00     0.028 H 
ATOM     11  H5  non d   1      -0.153  -2.058   2.312  0.00  0.00     0.028 H 
ATOM     12  H6  non d   1       0.961  -2.406   3.603  0.00  0.00     0.028 H 
ATOM     13  H7  non d   1       2.703  -1.044   2.616  0.00  0.00     0.027 H 
ATOM     14  H8  non d   1       2.125  -2.175   1.438  0.00  0.00     0.027 H 
ENDROOT
BRANCH   1  15
ATOM     15  C7  non d   1      -1.200  -0.849   4.435  0.00  0.00    -0.056 C 
ATOM     16  H9  non d   1      -1.932  -1.281   3.747  0.00  0.00     0.024 H 
ATOM     17  H10 non d   1      -1.684  -0.009   4.946  0.00  0.00     0.024 H 
ATOM     18  H11 non d   1      -1.000  -1.630   5.179  0.00  0.00     0.024 H 
ENDBRANCH   1  15
BRANCH   1  19
ATOM     19  C9  non d   1       1.166  -0.016   4.769  0.00  0.00    -0.091 C 
ATOM     20  C14 non d   1       1.023   0.104   6.097  0.00  0.00    -0.097 C 
ATOM     21  H21 non d   1       1.869   0.393   6.716  0.00  0.00     0.053 H 
ATOM     22  H22 non d   1       0.085  -0.070   6.611  0.00  0.00     0.053 H 
ATOM     23  H12 non d   1       2.161   0.202   4.383  0.00  0.00     0.058 H 
ENDBRANCH   1  19
BRANCH   2  24
ATOM     24  C8  non d   1      -1.466   0.991   2.009  0.00  0.00    -0.085 C 
ATOM     25  C13 non d   1      -2.161   0.000   1.428  0.00  0.00    -0.092 C 
ATOM     26  H19 non d   1      -1.834  -1.031   1.440  0.00  0.00     0.054 H 
ATOM     27  H20 non d   1      -3.086   0.194   0.893  0.00  0.00     0.054 H 
BRANCH  24  28
ATOM     28  C11 non d   1      -1.992   2.405   1.917  0.00  0.00    -0.044 C 
ATOM     29  H13 non d   1      -2.919   2.467   1.336  0.00  0.00     0.028 H 
ATOM     30  H14 non d   1      -2.205   2.796   2.918  0.00  0.00     0.028 H 
ATOM     31  H15 non d   1      -1.259   3.059   1.436  0.00  0.00     0.028 H 
ENDBRANCH  24  28
ENDBRANCH   2  24
BRANCH   3  32
ATOM     32  C10 non d   1       0.781  -0.393  -0.231  0.00  0.00    -0.085 C 
ATOM     33  C15 non d   1       0.287  -1.596  -0.574  0.00  0.00    -0.092 C 
ATOM     34  H23 non d   1       0.385  -2.477   0.049  0.00  0.00     0.054 H 
ATOM     35  H24 non d   1      -0.246  -1.740  -1.510  0.00  0.00     0.054 H 
BRANCH  32  36
ATOM     36  C12 non d   1       0.630   0.757  -1.198  0.00  0.00    -0.044 C 
ATOM     37  H16 non d   1       0.251   0.430  -2.173  0.00  0.00     0.028 H 
ATOM     38  H17 non d   1      -0.070   1.504  -0.812  0.00  0.00     0.028 H 
ATOM     39  H18 non d   1       1.597   1.239  -1.373  0.00  0.00     0.028 H 
ENDBRANCH  32  36
ENDBRANCH   3  32
TORSDOF 6
