REMARK  2 active torsions:
REMARK  status: ('A' for Active; 'I' for Inactive)
REMARK    1  A    between atoms: C1_1  and  C7_7 
REMARK    2  A    between atoms: C7_7  and  C8_8 
ROOT
ATOM      1  C1  non d   1       2.544   0.078   2.434  0.00  0.00    -0.020 C 
ATOM      2  C2  non d   1       1.784   1.286   1.850  0.00  0.00    -0.043 C 
ATOM      3  C3  non d   1       2.028  -1.238   1.820  0.00  0.00    -0.043 C 
ATOM      4  C4  non d   1       1.870   1.315   0.322  0.00  0.00    -0.032 C 
ATOM      5  C5  non d   1       2.115  -1.215   0.292  0.00  0.00    -0.032 C 
ATOM      6  C6  non d   1       1.420   0.002  -0.265  0.00  0.00    -0.085 C 
ATOM      7  C9  non d   1       0.459  -0.080  -1.198  0.00  0.00    -0.092 C 
ATOM      8  H1  non d   1       3.593   0.183   2.118  0.00  0.00     0.035 H 
ATOM      9  H2  non d   1       0.728   1.252   2.144  0.00  0.00     0.028 H 
ATOM     10  H3  non d   1       2.196   2.220   2.252  0.00  0.00     0.028 H 
ATOM     11  H4  non d   1       0.985  -1.413   2.111  0.00  0.00     0.028 H 
ATOM     12  H5  non d   1       2.612  -2.085   2.201  0.00  0.00     0.028 H 
ATOM     13  H6  non d   1       1.267   2.149  -0.057  0.00  0.00     0.031 H 
ATOM     14  H7  non d   1       2.905   1.507   0.013  0.00  0.00     0.031 H 
ATOM     15  H8  non d   1       1.683  -2.140  -0.107  0.00  0.00     0.031 H 
ATOM     16  H9  non d   1       3.167  -1.196  -0.018  0.00  0.00     0.031 H 
ATOM     17  H13 non d   1       0.141  -1.036  -1.604  0.00  0.00     0.054 H 
ATOM     18  H14 non d   1      -0.037   0.806  -1.582  0.00  0.00     0.054 H 
ENDROOT
BRANCH   1  19
ATOM     19  C7  non d   1       2.512   0.058   3.957  0.00  0.00    -0.085 C 
ATOM     20  C10 non d   1       3.645   0.166   4.673  0.00  0.00    -0.092 C 
ATOM     21  H15 non d   1       3.637   0.153   5.759  0.00  0.00     0.054 H 
ATOM     22  H16 non d   1       4.615   0.272   4.195  0.00  0.00     0.054 H 
BRANCH  19  23
ATOM     23  C8  non d   1       1.182  -0.086   4.648  0.00  0.00    -0.044 C 
ATOM     24  H10 non d   1       0.515   0.740   4.387  0.00  0.00     0.028 H 
ATOM     25  H11 non d   1       0.700  -1.029   4.373  0.00  0.00     0.028 H 
ATOM     26  H12 non d   1       1.287  -0.084   5.739  0.00  0.00     0.028 H 
ENDBRANCH  19  23
ENDBRANCH   1  19
TORSDOF 2
