@<TRIPOS>MOLECULE
5281520
 39 39 0 0 0
SMALL
USER_CHARGES

@<TRIPOS>ATOM
      1 C1         -3.9667    0.2822    1.5507 C.3     1  noname1    -0.0140
      2 C2         -3.2324    1.1401    2.6508 C.3     1  noname1    -0.0261
      3 C3         -3.0480   -0.8638    1.1269 C.2     1  noname1    -0.0828
      4 C4         -4.3837    1.2049    0.3858 C.3     1  noname1    -0.0561
      5 C5         -5.2458   -0.3202    2.1599 C.3     1  noname1    -0.0561
      6 C6         -1.7813    1.4542    2.3249 C.2     1  noname1    -0.0820
      7 C7         -0.6825    1.0306    2.9879 C.2     1  noname1    -0.0796
      8 C8          0.7369    1.1373    2.4256 C.3     1  noname1    -0.0288
      9 C9         -2.5434   -1.0909   -0.1012 C.2     1  noname1    -0.0833
     10 C10         0.9657    1.0939    0.8947 C.3     1  noname1    -0.0310
     11 C11        -1.2839   -1.9044   -0.3130 C.3     1  noname1    -0.0141
     12 C12        -0.0646   -1.1856    0.2681 C.2     1  noname1    -0.0774
     13 C13         0.0813    0.1501    0.1240 C.2     1  noname1    -0.0809
     14 C14        -0.7292    0.3306    4.3234 C.3     1  noname1    -0.0439
     15 C15         0.8416   -2.0441    1.1017 C.3     1  noname1    -0.0436
     16 H1         -3.7644    2.0886    2.7987 H       1  noname1     0.0318
     17 H2         -3.3066    0.6088    3.6047 H       1  noname1     0.0318
     18 H3         -2.6274   -1.4332    1.9579 H       1  noname1     0.0578
     19 H4         -4.9393    0.6533   -0.3817 H       1  noname1     0.0239
     20 H5         -5.0362    2.0118    0.7396 H       1  noname1     0.0239
     21 H6         -3.5197    1.6737   -0.0974 H       1  noname1     0.0239
     22 H7         -5.7993   -0.9099    1.4196 H       1  noname1     0.0239
     23 H8         -5.9148    0.4657    2.5288 H       1  noname1     0.0239
     24 H9         -5.0169   -0.9820    3.0036 H       1  noname1     0.0239
     25 H10        -1.6471    1.9905    1.3879 H       1  noname1     0.0575
     26 H11         1.3223    0.3085    2.8465 H       1  noname1     0.0315
     27 H12         1.1972    2.0496    2.8263 H       1  noname1     0.0315
     28 H13        -2.8796   -0.5191   -0.9608 H       1  noname1     0.0576
     29 H14         0.7913    2.1043    0.5012 H       1  noname1     0.0313
     30 H15         2.0186    0.8742    0.6812 H       1  noname1     0.0313
     31 H16        -1.4154   -2.8852    0.1607 H       1  noname1     0.0355
     32 H17        -1.1271   -2.0887   -1.3819 H       1  noname1     0.0355
     33 H18        -0.6232    0.6726   -0.5233 H       1  noname1     0.0575
     34 H19        -1.6757    0.4617    4.8518 H       1  noname1     0.0276
     35 H20         0.0463    0.7343    4.9841 H       1  noname1     0.0276
     36 H21        -0.5487   -0.7414    4.1948 H       1  noname1     0.0276
     37 H22         1.1565   -2.9224    0.5281 H       1  noname1     0.0276
     38 H23         1.7520   -1.5215    1.4078 H       1  noname1     0.0276
     39 H24         0.3216   -2.3856    2.0023 H       1  noname1     0.0276
@<TRIPOS>BOND
     1     1     2    1
     2     1     3    1
     3     1     4    1
     4     1     5    1
     5     2     6    1
     6     2    16    1
     7     2    17    1
     8     3     9    2
     9     3    18    1
    10     4    19    1
    11     4    20    1
    12     4    21    1
    13     5    22    1
    14     5    23    1
    15     5    24    1
    16     6     7    2
    17     6    25    1
    18     7     8    1
    19     7    14    1
    20     8    10    1
    21     8    26    1
    22     8    27    1
    23     9    11    1
    24     9    28    1
    25    10    13    1
    26    10    29    1
    27    10    30    1
    28    11    12    1
    29    11    31    1
    30    11    32    1
    31    12    13    2
    32    12    15    1
    33    13    33    1
    34    14    34    1
    35    14    35    1
    36    14    36    1
    37    15    37    1
    38    15    38    1
    39    15    39    1
