REMARK  4 active torsions:
REMARK  status: ('A' for Active; 'I' for Inactive)
REMARK    1  A    between atoms: C4_4  and  C12_12 
REMARK    2  A    between atoms: C5_5  and  C11_11 
REMARK    3  A    between atoms: C11_11  and  C14_14 
REMARK    4  A    between atoms: C11_11  and  C15_15 
ROOT
ATOM      1  C1  non d   1       3.589   0.772  -0.172  0.00  0.00    -0.016 C 
ATOM      2  C2  non d   1       2.976   1.274  -1.463  0.00  0.00    -0.025 C 
ATOM      3  C3  non d   1       2.132   1.178  -0.210  0.00  0.00    -0.011 C 
ATOM      4  C4  non d   1       4.692   1.649   0.401  0.00  0.00    -0.038 C 
ATOM      5  C5  non d   1       3.489   2.577  -2.029  0.00  0.00    -0.035 C 
ATOM      6  C6  non d   1       3.653  -0.729   0.052  0.00  0.00    -0.043 C 
ATOM      7  C7  non d   1       1.334  -0.042  -0.011  0.00  0.00    -0.082 C 
ATOM      8  C8  non d   1       2.220  -1.263  -0.129  0.00  0.00    -0.031 C 
ATOM      9  C9  non d   1       4.347   3.150   0.347  0.00  0.00    -0.050 C 
ATOM     10  C10 non d   1       3.697   3.650  -0.951  0.00  0.00    -0.050 C 
ATOM     11  C13 non d   1       0.026  -0.103   0.267  0.00  0.00    -0.090 C 
ATOM     12  H1  non d   1       2.816   0.546  -2.253  0.00  0.00     0.032 H 
ATOM     13  H2  non d   1       1.809   2.068   0.311  0.00  0.00     0.036 H 
ATOM     14  H3  non d   1       5.585   1.488  -0.219  0.00  0.00     0.031 H 
ATOM     15  H4  non d   1       4.484   2.347  -2.439  0.00  0.00     0.031 H 
ATOM     16  H5  non d   1       4.347  -1.208  -0.647  0.00  0.00     0.028 H 
ATOM     17  H6  non d   1       3.979  -0.971   1.068  0.00  0.00     0.028 H 
ATOM     18  H7  non d   1       2.110  -1.701  -1.128  0.00  0.00     0.031 H 
ATOM     19  H8  non d   1       1.987  -2.031   0.615  0.00  0.00     0.031 H 
ATOM     20  H9  non d   1       5.259   3.732   0.534  0.00  0.00     0.027 H 
ATOM     21  H10 non d   1       3.672   3.398   1.177  0.00  0.00     0.027 H 
ATOM     22  H11 non d   1       4.310   4.464  -1.356  0.00  0.00     0.027 H 
ATOM     23  H12 non d   1       2.740   4.111  -0.682  0.00  0.00     0.027 H 
ATOM     24  H17 non d   1      -0.478  -1.053   0.409  0.00  0.00     0.054 H 
ATOM     25  H18 non d   1      -0.569   0.800   0.353  0.00  0.00     0.054 H 
ENDROOT
BRANCH   5  26
ATOM     26  C11 non d   1       2.619   3.044  -3.231  0.00  0.00    -0.044 C 
ATOM     27  H13 non d   1       2.576   2.212  -3.947  0.00  0.00     0.030 H 
BRANCH  26  28
ATOM     28  C14 non d   1       1.173   3.383  -2.858  0.00  0.00    -0.062 C 
ATOM     29  H19 non d   1       0.677   2.539  -2.368  0.00  0.00     0.023 H 
ATOM     30  H20 non d   1       1.112   4.250  -2.194  0.00  0.00     0.023 H 
ATOM     31  H21 non d   1       0.594   3.620  -3.758  0.00  0.00     0.023 H 
ENDBRANCH  26  28
BRANCH  26  32
ATOM     32  C15 non d   1       3.254   4.228  -3.967  0.00  0.00    -0.062 C 
ATOM     33  H22 non d   1       4.290   4.007  -4.244  0.00  0.00     0.023 H 
ATOM     34  H23 non d   1       3.248   5.137  -3.357  0.00  0.00     0.023 H 
ATOM     35  H24 non d   1       2.704   4.446  -4.889  0.00  0.00     0.023 H 
ENDBRANCH  26  32
ENDBRANCH   5  26
BRANCH   4  36
ATOM     36  C12 non d   1       5.063   1.288   1.842  0.00  0.00    -0.062 C 
ATOM     37  H14 non d   1       5.779   2.007   2.255  0.00  0.00     0.023 H 
ATOM     38  H15 non d   1       5.537   0.303   1.895  0.00  0.00     0.023 H 
ATOM     39  H16 non d   1       4.179   1.275   2.488  0.00  0.00     0.023 H 
ENDBRANCH   4  36
TORSDOF 4
