@<TRIPOS>MOLECULE
441005
 39 40 0 0 0
SMALL
USER_CHARGES

@<TRIPOS>ATOM
      1 C1         -2.4566    0.3363    1.8380 C.3     1  noname1    -0.0287
      2 C2         -1.7183    0.8791    0.5791 C.3     1  noname1     0.0013
      3 C3         -1.9680    1.0510    3.1048 C.3     1  noname1    -0.0456
      4 C4         -1.3702    2.3681    0.6325 C.2     1  noname1    -0.0671
      5 C5         -4.0072    0.2718    1.6401 C.3     1  noname1    -0.0434
      6 C6         -2.0485    2.5708    3.0302 C.3     1  noname1    -0.0317
      7 C7         -1.5608    3.1465    1.7212 C.2     1  noname1    -0.0700
      8 C8         -0.6874    2.8025   -0.6460 C.3     1  noname1    -0.0274
      9 C9         -0.4685    0.0785    0.2451 C.2     1  noname1    -0.0774
     10 C10         0.6533    2.0612   -0.7889 C.3     1  noname1    -0.0285
     11 C11         0.6078    0.6043   -0.3736 C.2     1  noname1    -0.0769
     12 C12        -4.7067    1.5744    1.2476 C.3     1  noname1    -0.0625
     13 C13        -4.7184   -0.3443    2.8504 C.3     1  noname1    -0.0625
     14 C14        -1.2697    4.6223    1.7955 C.3     1  noname1    -0.0436
     15 C15         1.8275   -0.2093   -0.6915 C.3     1  noname1    -0.0439
     16 H1         -2.1658   -0.7171    1.9705 H       1  noname1     0.0314
     17 H2         -2.3874    0.7217   -0.2793 H       1  noname1     0.0395
     18 H3         -0.9160    0.7743    3.2646 H       1  noname1     0.0273
     19 H4         -2.4965    0.6962    3.9956 H       1  noname1     0.0273
     20 H5         -4.1716   -0.4234    0.8038 H       1  noname1     0.0300
     21 H6         -1.4361    2.9721    3.8485 H       1  noname1     0.0312
     22 H7         -3.0689    2.9137    3.2239 H       1  noname1     0.0312
     23 H8         -1.3393    2.5639   -1.4967 H       1  noname1     0.0316
     24 H9         -0.5019    3.8771   -0.7051 H       1  noname1     0.0316
     25 H10        -0.4800   -0.9814    0.4874 H       1  noname1     0.0581
     26 H11         0.9808    2.1368   -1.8328 H       1  noname1     0.0315
     27 H12         1.4105    2.5681   -0.1766 H       1  noname1     0.0315
     28 H13        -4.2409    2.0480    0.3798 H       1  noname1     0.0233
     29 H14        -4.7345    2.2934    2.0685 H       1  noname1     0.0233
     30 H15        -5.7486    1.3700    0.9740 H       1  noname1     0.0233
     31 H16        -4.2413   -1.2828    3.1509 H       1  noname1     0.0233
     32 H17        -4.7194    0.3343    3.7092 H       1  noname1     0.0233
     33 H18        -5.7632   -0.5677    2.6078 H       1  noname1     0.0233
     34 H19        -2.1126    5.1458    2.2604 H       1  noname1     0.0276
     35 H20        -1.1174    5.0910    0.8220 H       1  noname1     0.0276
     36 H21        -0.3774    4.8003    2.4043 H       1  noname1     0.0276
     37 H22         2.0022   -0.2256   -1.7721 H       1  noname1     0.0276
     38 H23         2.7076    0.2204   -0.2026 H       1  noname1     0.0276
     39 H24         1.7305   -1.2462   -0.3530 H       1  noname1     0.0276
@<TRIPOS>BOND
     1     1     2    1
     2     1     3    1
     3     1     5    1
     4     1    16    1
     5     2     4    1
     6     2     9    1
     7     2    17    1
     8     3     6    1
     9     3    18    1
    10     3    19    1
    11     4     7    2
    12     4     8    1
    13     5    12    1
    14     5    13    1
    15     5    20    1
    16     6     7    1
    17     6    21    1
    18     6    22    1
    19     7    14    1
    20     8    10    1
    21     8    23    1
    22     8    24    1
    23     9    11    2
    24     9    25    1
    25    10    11    1
    26    10    26    1
    27    10    27    1
    28    11    15    1
    29    12    28    1
    30    12    29    1
    31    12    30    1
    32    13    31    1
    33    13    32    1
    34    13    33    1
    35    14    34    1
    36    14    35    1
    37    14    36    1
    38    15    37    1
    39    15    38    1
    40    15    39    1
