@<TRIPOS>MOLECULE
82227
26 27 1
SMALL
USER_CHARGES
@<TRIPOS>ATOM
1	C1    -2.2364     1.1927    -0.0796	C.3	1	noname	-0.0257
2	C2    -1.7199     2.0066     1.1875	C.3	1	noname	-0.0316
3	C3    -0.9578     0.2891     0.2238	C.3	1	noname	-0.0148
4	C4    -1.2188     0.6295     1.7369	C.3	1	noname	-0.0425
5	C5    -0.5154     2.9386     0.9344	C.3	1	noname	-0.0314
6	C6     0.3447     0.9062    -0.2226	C.2	1	noname	-0.0775
7	C7    -3.5904     0.4797     0.1085	C.3	1	noname	-0.0591
8	C8    -2.2935     1.9367    -1.4204	C.3	1	noname	-0.0591
9	C9     0.5416     2.1874     0.1498	C.2	1	noname	-0.0810
10	C10     1.3037     0.0803    -1.0115	C.3	1	noname	-0.0436
11	H1    -2.4997     2.4890     1.7855	H	1	noname	0.0312
12	H2    -1.0491    -0.7694    -0.0380	H	1	noname	0.0354
13	H3    -0.3451     0.6540     2.3981	H	1	noname	0.0276
14	H4    -1.9716     0.0129     2.2381	H	1	noname	0.0276
15	H5    -0.0925     3.2735     1.8879	H	1	noname	0.0313
16	H6    -0.8325     3.8259     0.3765	H	1	noname	0.0313
17	H7    -4.4092     1.2080     0.1129	H	1	noname	0.0236
18	H8    -3.7688    -0.2247    -0.7118	H	1	noname	0.0236
19	H9    -3.6623    -0.0885     1.0389	H	1	noname	0.0236
20	H10    -2.4609     1.2324    -2.2431	H	1	noname	0.0236
21	H11    -1.3845     2.4931    -1.6577	H	1	noname	0.0236
22	H12    -3.1172     2.6595    -1.4231	H	1	noname	0.0236
23	H13     1.4507     2.7181    -0.1166	H	1	noname	0.0575
24	H14     1.6066    -0.8017    -0.4385	H	1	noname	0.0276
25	H15     2.2073     0.6421    -1.2690	H	1	noname	0.0276
26	H16     0.8379    -0.2546    -1.9437	H	1	noname	0.0276
@<TRIPOS>BOND
1	1	2	1
2	1	3	1
3	1	7	1
4	1	8	1
5	2	4	1
6	2	5	1
7	2	11	1
8	3	4	1
9	3	6	1
10	3	12	1
11	4	13	1
12	4	14	1
13	5	9	1
14	5	15	1
15	5	16	1
16	6	9	2
17	6	10	1
18	7	17	1
19	7	18	1
20	7	19	1
21	8	20	1
22	8	21	1
23	8	22	1
24	9	23	1
25	10	24	1
26	10	25	1
27	10	26	1
@<TRIPOS>SUBSTRUCTURE
1	noname	1
