@<TRIPOS>MOLECULE
335
 16 16 0 0 0
SMALL
USER_CHARGES

@<TRIPOS>ATOM
      1 O1          1.1511   -1.3568    1.1927 O.3     1  noname1    -0.2866
      2 C1         -0.3465    0.1335    0.1167 C.ar    1  noname1    -0.0316
      3 C2          0.0496   -1.1365    0.3839 C.ar    1  noname1    -0.0107
      4 C3         -1.4264    0.3339   -0.6766 C.ar    1  noname1    -0.0595
      5 C4          0.4017    1.3078    0.6923 C.3     1  noname1     0.0087
      6 C5         -0.6322   -2.1785   -0.1402 C.ar    1  noname1    -0.0357
      7 C6         -2.1018   -0.7099   -1.1958 C.ar    1  noname1    -0.0761
      8 C7         -1.7047   -1.9674   -0.9277 C.ar    1  noname1    -0.0630
      9 H1         -1.7617    1.3426   -0.9040 H       1  noname1     0.0626
     10 H2         -0.0377    2.2638    0.3866 H       1  noname1     0.0280
     11 H3          1.4433    1.3063    0.3530 H       1  noname1     0.0280
     12 H4          0.3841    1.2781    1.7872 H       1  noname1     0.0280
     13 H5         -0.3257   -3.1990    0.0658 H       1  noname1     0.0650
     14 H6         -2.9662   -0.5357   -1.8305 H       1  noname1     0.0622
     15 H7         -2.2484   -2.8097   -1.3458 H       1  noname1     0.0623
     16 H8          1.3361   -2.3023    1.3109 H       1  noname1     0.2182
@<TRIPOS>BOND
     1     1     3    1
     2     1    16    1
     3     2     3   ar
     4     2     4   ar
     5     2     5    1
     6     3     6   ar
     7     4     7   ar
     8     4     9    1
     9     5    10    1
    10     5    11    1
    11     5    12    1
    12     6     8   ar
    13     6    13    1
    14     7     8   ar
    15     7    14    1
    16     8    15    1
