REMARK  4 active torsions:
REMARK  status: ('A' for Active; 'I' for Inactive)
REMARK    1  A    between atoms: C1_1  and  C2_2 
REMARK    2  A    between atoms: C1_1  and  C8_8 
REMARK    3  A    between atoms: C1_1  and  C9_9 
REMARK    4  A    between atoms: C6_6  and  C10_10 
ROOT
ATOM      1  C2  non d   1      -0.870  -1.294   0.259  0.00  0.00    -0.072 A 
ATOM      2  C3  non d   1      -2.047  -2.012   0.886  0.00  0.00    -0.013 A 
ATOM      3  C4  non d   1      -0.219  -0.265   2.470  0.00  0.00    -0.014 A 
ATOM      4  C5  non d   1      -0.057  -0.509   0.996  0.00  0.00    -0.076 A 
ATOM      5  C6  non d   1      -1.392  -0.983   3.088  0.00  0.00    -0.076 A 
ATOM      6  C7  non d   1      -2.208  -1.768   2.361  0.00  0.00    -0.078 A 
ATOM      7  H2  non d   1      -2.973  -1.698   0.393  0.00  0.00     0.036 H 
ATOM      8  H3  non d   1      -1.939  -3.092   0.737  0.00  0.00     0.036 H 
ATOM      9  H4  non d   1      -0.333   0.814   2.630  0.00  0.00     0.035 H 
ATOM     10  H5  non d   1       0.702  -0.580   2.974  0.00  0.00     0.035 H 
ATOM     11  H6  non d   1       0.782  -0.001   0.527  0.00  0.00     0.058 H 
ATOM     12  H7  non d   1      -3.045  -2.272   2.837  0.00  0.00     0.058 H 
ENDROOT
BRANCH   1  13
ATOM     13  C1  non d   1      -0.627  -1.482  -1.232  0.00  0.00    -0.026 C 
ATOM     14  H1  non d   1       0.258  -0.896  -1.520  0.00  0.00     0.034 H 
BRANCH  13  15
ATOM     15  C8  non d   1      -1.791  -0.957  -2.075  0.00  0.00    -0.059 C 
ATOM     16  H8  non d   1      -1.534  -0.983  -3.140  0.00  0.00     0.024 H 
ATOM     17  H9  non d   1      -2.697  -1.557  -1.941  0.00  0.00     0.024 H 
ATOM     18  H10 non d   1      -2.028   0.081  -1.816  0.00  0.00     0.024 H 
ENDBRANCH  13  15
BRANCH  13  19
ATOM     19  C9  non d   1      -0.318  -2.939  -1.585  0.00  0.00    -0.059 C 
ATOM     20  H11 non d   1      -0.019  -3.023  -2.636  0.00  0.00     0.024 H 
ATOM     21  H12 non d   1       0.503  -3.327  -0.973  0.00  0.00     0.024 H 
ATOM     22  H13 non d   1      -1.188  -3.588  -1.438  0.00  0.00     0.024 H 
ENDBRANCH  13  19
ENDBRANCH   1  13
BRANCH   5  23
ATOM     23  C10 non d   1      -1.591  -0.768   4.559  0.00  0.00    -0.044 C 
ATOM     24  H14 non d   1      -1.748   0.295   4.770  0.00  0.00     0.028 H 
ATOM     25  H15 non d   1      -2.458  -1.316   4.942  0.00  0.00     0.028 H 
ATOM     26  H16 non d   1      -0.710  -1.107   5.115  0.00  0.00     0.028 H 
ENDBRANCH   5  23
TORSDOF 4
