@<TRIPOS>MOLECULE
10657
 39 40 0 0 0
SMALL
USER_CHARGES

@<TRIPOS>ATOM
      1 C1         -1.1187    0.8677    2.0952 C.3     1  noname1    -0.0274
      2 C2         -1.8896    0.2336    3.2847 C.3     1  noname1    -0.0319
      3 C3         -0.0684    1.8948    2.6051 C.3     1  noname1    -0.0137
      4 C4         -0.4136   -0.1698    1.1949 C.3     1  noname1    -0.0286
      5 C5         -2.6146    1.3503    4.0691 C.3     1  noname1    -0.0314
      6 C6         -2.8404   -0.9380    2.8938 C.3     1  noname1    -0.0437
      7 C7          0.5231    2.6430    1.3892 C.3     1  noname1    -0.0279
      8 C8         -0.6162    2.8272    3.6762 C.2     1  noname1    -0.0775
      9 C9         -1.7734    2.5683    4.3098 C.2     1  noname1    -0.0810
     10 C10         0.5169    0.4471    0.1769 C.2     1  noname1    -0.0797
     11 C11         0.9112    1.7292    0.2612 C.2     1  noname1    -0.0821
     12 C12        -3.9371   -0.5520    1.8966 C.3     1  noname1    -0.0625
     13 C13        -3.4784   -1.5908    4.1264 C.3     1  noname1    -0.0625
     14 C14         0.2115    4.0266    4.0505 C.3     1  noname1    -0.0436
     15 C15         0.9668   -0.4544   -0.9362 C.3     1  noname1    -0.0439
     16 H1         -1.8463    1.4107    1.4727 H       1  noname1     0.0315
     17 H2         -1.1331   -0.1966    3.9593 H       1  noname1     0.0311
     18 H3          0.7513    1.3350    3.0816 H       1  noname1     0.0355
     19 H4          0.1603   -0.8741    1.8101 H       1  noname1     0.0315
     20 H5         -1.1720   -0.7497    0.6566 H       1  noname1     0.0315
     21 H6         -3.5213    1.6736    3.5470 H       1  noname1     0.0313
     22 H7         -2.9260    0.9618    5.0456 H       1  noname1     0.0313
     23 H8         -2.2307   -1.7192    2.4228 H       1  noname1     0.0300
     24 H9          1.4207    3.1912    1.7008 H       1  noname1     0.0316
     25 H10        -0.1903    3.3837    1.0066 H       1  noname1     0.0316
     26 H11        -2.1437    3.2556    5.0678 H       1  noname1     0.0575
     27 H12         1.5595    2.1543   -0.5016 H       1  noname1     0.0575
     28 H13        -3.5207   -0.1238    0.9808 H       1  noname1     0.0233
     29 H14        -4.6413    0.1692    2.3220 H       1  noname1     0.0233
     30 H15        -4.5137   -1.4373    1.6056 H       1  noname1     0.0233
     31 H16        -2.7159   -1.8621    4.8638 H       1  noname1     0.0233
     32 H17        -4.2053   -0.9295    4.6085 H       1  noname1     0.0233
     33 H18        -4.0065   -2.5080    3.8431 H       1  noname1     0.0233
     34 H19         1.2347    3.7209    4.2918 H       1  noname1     0.0276
     35 H20        -0.1898    4.5459    4.9275 H       1  noname1     0.0276
     36 H21         0.2431    4.7478    3.2281 H       1  noname1     0.0276
     37 H22         0.1058   -0.8008   -1.5168 H       1  noname1     0.0276
     38 H23         1.6522    0.0513   -1.6244 H       1  noname1     0.0276
     39 H24         1.4869   -1.3275   -0.5291 H       1  noname1     0.0276
@<TRIPOS>BOND
     1     1     2    1
     2     1     3    1
     3     1     4    1
     4     1    16    1
     5     2     5    1
     6     2     6    1
     7     2    17    1
     8     3     7    1
     9     3     8    1
    10     3    18    1
    11     4    10    1
    12     4    19    1
    13     4    20    1
    14     5     9    1
    15     5    21    1
    16     5    22    1
    17     6    12    1
    18     6    13    1
    19     6    23    1
    20     7    11    1
    21     7    24    1
    22     7    25    1
    23     8     9    2
    24     8    14    1
    25     9    26    1
    26    10    11    2
    27    10    15    1
    28    11    27    1
    29    12    28    1
    30    12    29    1
    31    12    30    1
    32    13    31    1
    33    13    32    1
    34    13    33    1
    35    14    34    1
    36    14    35    1
    37    14    36    1
    38    15    37    1
    39    15    38    1
    40    15    39    1
