@<TRIPOS>MOLECULE
20055523
 29 30 0 0 0
SMALL
USER_CHARGES

@<TRIPOS>ATOM
      1 O1          1.5092   -0.7127    1.2175 O.3     1  noname1    -0.3897
      2 C1          3.1140    0.2842   -1.8042 C.3     1  noname1    -0.0213
      3 C2          2.2835   -0.7143   -1.0500 C.3     1  noname1    -0.0062
      4 C3          3.7876   -0.7963   -0.9769 C.3     1  noname1    -0.0408
      5 C4          1.4803    0.0158   -0.0010 C.3     1  noname1     0.0655
      6 C5          2.8715    1.6458   -1.1754 C.3     1  noname1    -0.0442
      7 C6          3.2435    0.1938   -3.3155 C.3     1  noname1    -0.0410
      8 C7          2.2163    1.3569    0.1843 C.3     1  noname1    -0.0236
      9 C8          0.0312    0.2141   -0.4342 C.3     1  noname1    -0.0358
     10 C9          4.4269    1.0225   -3.8151 C.3     1  noname1    -0.0622
     11 C10         1.9575    0.5966   -4.0381 C.3     1  noname1    -0.0622
     12 H1          1.7510   -1.4952   -1.5738 H       1  noname1     0.0338
     13 H2          4.2824   -0.5230   -0.0512 H       1  noname1     0.0276
     14 H3          4.2716   -1.6224   -1.4869 H       1  noname1     0.0276
     15 H4          2.1898    2.2472   -1.7843 H       1  noname1     0.0273
     16 H5          3.8047    2.2044   -1.0515 H       1  noname1     0.0273
     17 H6          3.4435   -0.8518   -3.5861 H       1  noname1     0.0303
     18 H7          1.5565    2.1707    0.5031 H       1  noname1     0.0296
     19 H8          2.9917    1.2639    0.9558 H       1  noname1     0.0296
     20 H9         -0.4656   -0.7519   -0.5804 H       1  noname1     0.0260
     21 H10        -0.0429    0.7760   -1.3708 H       1  noname1     0.0260
     22 H11        -0.5364    0.7447    0.3383 H       1  noname1     0.0260
     23 H12         5.3515    0.7244   -3.3093 H       1  noname1     0.0233
     24 H13         4.2767    2.0916   -3.6305 H       1  noname1     0.0233
     25 H14         4.5709    0.8842   -4.8919 H       1  noname1     0.0233
     26 H15         1.1046    0.0125   -3.6773 H       1  noname1     0.0233
     27 H16         1.7216    1.6557   -3.8956 H       1  noname1     0.0233
     28 H17         2.0514    0.4213   -5.1152 H       1  noname1     0.0233
     29 H18         1.2342   -1.6223    1.0146 H       1  noname1     0.2108
@<TRIPOS>BOND
     1     5     1    1
     2     1    29    1
     3     2     3    1
     4     2     4    1
     5     2     6    1
     6     2     7    1
     7     3     4    1
     8     3     5    1
     9     3    12    1
    10     4    13    1
    11     4    14    1
    12     5     8    1
    13     5     9    1
    14     6     8    1
    15     6    15    1
    16     6    16    1
    17     7    10    1
    18     7    11    1
    19     7    17    1
    20     8    18    1
    21     8    19    1
    22     9    20    1
    23     9    21    1
    24     9    22    1
    25    10    23    1
    26    10    24    1
    27    10    25    1
    28    11    26    1
    29    11    27    1
    30    11    28    1
