@<TRIPOS>MOLECULE
68140
 26 26 0 0 0
SMALL
USER_CHARGES

@<TRIPOS>ATOM
      1 C1          2.5440    0.0784    2.4340 C.3     1  noname11   -0.0202
      2 C2          1.7844    1.2857    1.8500 C.3     1  noname11   -0.0430
      3 C3          2.0281   -1.2379    1.8201 C.3     1  noname11   -0.0430
      4 C4          1.8699    1.3155    0.3220 C.3     1  noname11   -0.0317
      5 C5          2.1148   -1.2148    0.2920 C.3     1  noname11   -0.0317
      6 C6          1.4199    0.0017   -0.2649 C.2     1  noname11   -0.0851
      7 C7          2.5121    0.0579    3.9573 C.2     1  noname11   -0.0851
      8 C8          1.1821   -0.0864    4.6482 C.3     1  noname11   -0.0439
      9 C9          0.4588   -0.0803   -1.1976 C.2     1  noname11   -0.0920
     10 C10         3.6452    0.1664    4.6728 C.2     1  noname11   -0.0920
     11 H1          3.5929    0.1833    2.1180 H       1  noname11    0.0348
     12 H2          0.7276    1.2519    2.1437 H       1  noname11    0.0276
     13 H3          2.1965    2.2195    2.2519 H       1  noname11    0.0276
     14 H4          0.9846   -1.4134    2.1115 H       1  noname11    0.0276
     15 H5          2.6116   -2.0849    2.2013 H       1  noname11    0.0276
     16 H6          1.2670    2.1494   -0.0565 H       1  noname11    0.0312
     17 H7          2.9051    1.5066    0.0134 H       1  noname11    0.0312
     18 H8          1.6825   -2.1398   -0.1075 H       1  noname11    0.0312
     19 H9          3.1669   -1.1963   -0.0181 H       1  noname11    0.0312
     20 H10         0.5149    0.7400    4.3870 H       1  noname11    0.0276
     21 H11         0.6998   -1.0289    4.3731 H       1  noname11    0.0276
     22 H12         1.2873   -0.0840    5.7388 H       1  noname11    0.0276
     23 H13         0.1415   -1.0361   -1.6036 H       1  noname11    0.0537
     24 H14        -0.0368    0.8062   -1.5817 H       1  noname11    0.0537
     25 H15         3.6369    0.1534    5.7588 H       1  noname11    0.0537
     26 H16         4.6147    0.2715    4.1952 H       1  noname11    0.0537
@<TRIPOS>BOND
     1     1     2    1
     2     1     3    1
     3     1     7    1
     4     1    11    1
     5     2     4    1
     6     2    12    1
     7     2    13    1
     8     3     5    1
     9     3    14    1
    10     3    15    1
    11     4     6    1
    12     4    16    1
    13     4    17    1
    14     5     6    1
    15     5    18    1
    16     5    19    1
    17     6     9    2
    18     7     8    1
    19     7    10    2
    20     8    20    1
    21     8    21    1
    22     8    22    1
    23     9    23    1
    24     9    24    1
    25    10    25    1
    26    10    26    1
