REMARK  5 active torsions:
REMARK  status: ('A' for Active; 'I' for Inactive)
REMARK    1  A    between atoms: C4_5  and  O1_1 
REMARK    2  A    between atoms: C1_2  and  C6_7 
REMARK    3  A    between atoms: C4_5  and  C8_9 
REMARK    4  A    between atoms: C6_7  and  C9_10 
REMARK    5  A    between atoms: C6_7  and  C10_11 
ROOT
ATOM      1  C1  non d   1       3.114   0.284  -1.804  0.00  0.00    -0.021 C 
ATOM      2  C2  non d   1       2.284  -0.714  -1.050  0.00  0.00    -0.006 C 
ATOM      3  C3  non d   1       3.788  -0.796  -0.977  0.00  0.00    -0.041 C 
ATOM      4  C4  non d   1       1.480   0.016  -0.001  0.00  0.00     0.066 C 
ATOM      5  C5  non d   1       2.872   1.646  -1.175  0.00  0.00    -0.044 C 
ATOM      6  C7  non d   1       2.216   1.357   0.184  0.00  0.00    -0.024 C 
ATOM      7  H1  non d   1       1.751  -1.495  -1.574  0.00  0.00     0.034 H 
ATOM      8  H2  non d   1       4.282  -0.523  -0.051  0.00  0.00     0.028 H 
ATOM      9  H3  non d   1       4.272  -1.622  -1.487  0.00  0.00     0.028 H 
ATOM     10  H4  non d   1       2.190   2.247  -1.784  0.00  0.00     0.027 H 
ATOM     11  H5  non d   1       3.805   2.204  -1.052  0.00  0.00     0.027 H 
ATOM     12  H7  non d   1       1.556   2.171   0.503  0.00  0.00     0.030 H 
ATOM     13  H8  non d   1       2.992   1.264   0.956  0.00  0.00     0.030 H 
ENDROOT
BRANCH   1  14
ATOM     14  C6  non d   1       3.244   0.194  -3.316  0.00  0.00    -0.041 C 
ATOM     15  H6  non d   1       3.443  -0.852  -3.586  0.00  0.00     0.030 H 
BRANCH  14  16
ATOM     16  C9  non d   1       4.427   1.022  -3.815  0.00  0.00    -0.062 C 
ATOM     17  H12 non d   1       5.351   0.724  -3.309  0.00  0.00     0.023 H 
ATOM     18  H13 non d   1       4.277   2.092  -3.631  0.00  0.00     0.023 H 
ATOM     19  H14 non d   1       4.571   0.884  -4.892  0.00  0.00     0.023 H 
ENDBRANCH  14  16
BRANCH  14  20
ATOM     20  C10 non d   1       1.958   0.597  -4.038  0.00  0.00    -0.062 C 
ATOM     21  H15 non d   1       1.105   0.013  -3.677  0.00  0.00     0.023 H 
ATOM     22  H16 non d   1       1.722   1.656  -3.896  0.00  0.00     0.023 H 
ATOM     23  H17 non d   1       2.051   0.421  -5.115  0.00  0.00     0.023 H 
ENDBRANCH  14  20
ENDBRANCH   1  14
BRANCH   4  24
ATOM     24  O1  non d   1       1.509  -0.713   1.218  0.00  0.00    -0.390 OA
ATOM     25  H18 non d   1       1.234  -1.622   1.015  0.00  0.00     0.211 HD
ENDBRANCH   4  24
BRANCH   4  26
ATOM     26  C8  non d   1       0.031   0.214  -0.434  0.00  0.00    -0.036 C 
ATOM     27  H9  non d   1      -0.466  -0.752  -0.580  0.00  0.00     0.026 H 
ATOM     28  H10 non d   1      -0.043   0.776  -1.371  0.00  0.00     0.026 H 
ATOM     29  H11 non d   1      -0.536   0.745   0.338  0.00  0.00     0.026 H 
ENDBRANCH   4  26
TORSDOF 5
