@<TRIPOS>MOLECULE
6432308
 39 40 0 0 0
SMALL
USER_CHARGES

@<TRIPOS>ATOM
      1 C1         -2.2400    1.4400    0.4817 C.3     1  noname1    -0.0134
      2 C2         -3.3751    1.3296   -0.5906 C.3     1  noname1    -0.0319
      3 C3         -1.8111    2.9136    0.7807 C.3     1  noname1    -0.0137
      4 C4         -4.1765    2.6384   -0.6713 C.3     1  noname1    -0.0459
      5 C5         -4.2752    0.0732   -0.3709 C.3     1  noname1    -0.0437
      6 C6         -0.4692    2.9305    1.5373 C.3     1  noname1    -0.0424
      7 C7         -1.9362    3.8194   -0.4399 C.2     1  noname1    -0.0826
      8 C8         -3.2854    3.7963   -1.1244 C.3     1  noname1    -0.0317
      9 C9         -1.0810    0.5323    0.1134 C.2     1  noname1    -0.0799
     10 C10         0.6529    2.1793    0.8187 C.3     1  noname1    -0.0317
     11 C11         0.2154    0.8615    0.2413 C.2     1  noname1    -0.0785
     12 C12        -5.0635   -0.2778   -1.6390 C.3     1  noname1    -0.0625
     13 C13        -5.2443    0.1996    0.8093 C.3     1  noname1    -0.0625
     14 C14        -0.9821    4.6349   -0.9207 C.2     1  noname1    -0.0905
     15 C15         1.3177   -0.0671   -0.1810 C.3     1  noname1    -0.0439
     16 H1         -2.6224    1.0418    1.4310 H       1  noname1     0.0355
     17 H2         -2.8888    1.1983   -1.5698 H       1  noname1     0.0311
     18 H3         -2.5461    3.3154    1.4960 H       1  noname1     0.0355
     19 H4         -5.0106    2.5498   -1.3754 H       1  noname1     0.0273
     20 H5         -4.6150    2.8778    0.3055 H       1  noname1     0.0273
     21 H6         -3.6230   -0.7847   -0.1651 H       1  noname1     0.0300
     22 H7         -0.6261    2.4556    2.5164 H       1  noname1     0.0276
     23 H8         -0.1514    3.9568    1.7567 H       1  noname1     0.0276
     24 H9         -3.1384    3.7190   -2.2097 H       1  noname1     0.0312
     25 H10        -3.8112    4.7395   -0.9326 H       1  noname1     0.0312
     26 H11        -1.3361   -0.4496   -0.2798 H       1  noname1     0.0578
     27 H12         1.4630    2.0128    1.5395 H       1  noname1     0.0312
     28 H13         1.0742    2.7902    0.0134 H       1  noname1     0.0312
     29 H14        -4.3921   -0.3959   -2.4959 H       1  noname1     0.0233
     30 H15        -5.8035    0.4891   -1.8872 H       1  noname1     0.0233
     31 H16        -5.5997   -1.2241   -1.5074 H       1  noname1     0.0233
     32 H17        -4.7236    0.4464    1.7384 H       1  noname1     0.0233
     33 H18        -6.0047    0.9664    0.6297 H       1  noname1     0.0233
     34 H19        -5.7698   -0.7481    0.9722 H       1  noname1     0.0233
     35 H20        -1.1650    5.2556   -1.7938 H       1  noname1     0.0537
     36 H21        -0.0020    4.7294   -0.4700 H       1  noname1     0.0537
     37 H22         0.9318   -0.9986   -0.6082 H       1  noname1     0.0276
     38 H23         1.9446   -0.3284    0.6777 H       1  noname1     0.0276
     39 H24         1.9462    0.4117   -0.9388 H       1  noname1     0.0276
@<TRIPOS>BOND
     1     1     2    1
     2     1     3    1
     3     1     9    1
     4     1    16    1
     5     2     4    1
     6     2     5    1
     7     2    17    1
     8     3     6    1
     9     3     7    1
    10     3    18    1
    11     4     8    1
    12     4    19    1
    13     4    20    1
    14     5    12    1
    15     5    13    1
    16     5    21    1
    17     6    10    1
    18     6    22    1
    19     6    23    1
    20     7     8    1
    21     7    14    2
    22     8    24    1
    23     8    25    1
    24     9    11    2
    25     9    26    1
    26    10    11    1
    27    10    27    1
    28    10    28    1
    29    11    15    1
    30    12    29    1
    31    12    30    1
    32    12    31    1
    33    13    32    1
    34    13    33    1
    35    13    34    1
    36    14    35    1
    37    14    36    1
    38    15    37    1
    39    15    38    1
    40    15    39    1
