REMARK  3 active torsions:
REMARK  status: ('A' for Active; 'I' for Inactive)
REMARK    1  A    between atoms: C5_5  and  C8_8 
REMARK    2  A    between atoms: C7_7  and  C9_9 
REMARK    3  A    between atoms: C7_7  and  C10_10 
ROOT
ATOM      1  C1  non d   1       0.532  -2.665  -1.249  0.00  0.00    -0.028 C 
ATOM      2  C2  non d   1       0.221  -1.379  -0.506  0.00  0.00    -0.071 C 
ATOM      3  C3  non d   1      -0.656  -3.111  -2.109  0.00  0.00    -0.029 C 
ATOM      4  C4  non d   1      -0.994  -1.536   0.398  0.00  0.00    -0.013 C 
ATOM      5  C5  non d   1      -1.967  -3.070  -1.361  0.00  0.00    -0.078 C 
ATOM      6  C6  non d   1      -2.091  -2.371  -0.218  0.00  0.00    -0.080 C 
ATOM      7  C7  non d   1       0.927  -0.227  -0.631  0.00  0.00    -0.073 C 
ATOM      8  H1  non d   1       0.753  -3.442  -0.504  0.00  0.00     0.032 H 
ATOM      9  H2  non d   1       1.425  -2.605  -1.875  0.00  0.00     0.032 H 
ATOM     10  H3  non d   1      -0.462  -4.133  -2.457  0.00  0.00     0.032 H 
ATOM     11  H4  non d   1      -0.735  -2.474  -2.999  0.00  0.00     0.032 H 
ATOM     12  H5  non d   1      -0.685  -2.003   1.340  0.00  0.00     0.036 H 
ATOM     13  H6  non d   1      -1.440  -0.566   0.637  0.00  0.00     0.036 H 
ATOM     14  H7  non d   1      -3.038  -2.370   0.316  0.00  0.00     0.058 H 
ENDROOT
BRANCH   7  15
ATOM     15  C9  non d   1       0.661   1.009   0.195  0.00  0.00    -0.044 C 
ATOM     16  H11 non d   1       1.608   1.447   0.533  0.00  0.00     0.028 H 
ATOM     17  H12 non d   1       0.082   0.812   1.100  0.00  0.00     0.028 H 
ATOM     18  H13 non d   1       0.132   1.757  -0.404  0.00  0.00     0.028 H 
ENDBRANCH   7  15
BRANCH   7  19
ATOM     19  C10 non d   1       2.069  -0.029  -1.598  0.00  0.00    -0.044 C 
ATOM     20  H14 non d   1       2.080  -0.750  -2.418  0.00  0.00     0.028 H 
ATOM     21  H15 non d   1       3.026  -0.086  -1.069  0.00  0.00     0.028 H 
ATOM     22  H16 non d   1       1.996   0.958  -2.069  0.00  0.00     0.028 H 
ENDBRANCH   7  19
BRANCH   5  23
ATOM     23  C8  non d   1      -3.103  -3.840  -1.964  0.00  0.00    -0.044 C 
ATOM     24  H8  non d   1      -4.022  -3.745  -1.376  0.00  0.00     0.028 H 
ATOM     25  H9  non d   1      -2.853  -4.904  -2.022  0.00  0.00     0.028 H 
ATOM     26  H10 non d   1      -3.314  -3.476  -2.975  0.00  0.00     0.028 H 
ENDBRANCH   5  23
TORSDOF 3
