REMARK  7 active torsions:
REMARK  status: ('A' for Active; 'I' for Inactive)
REMARK    1  A    between atoms: O1_1  and  C2_4 
REMARK    2  A    between atoms: O1_1  and  C11_13 
REMARK    3  A    between atoms: C1_3  and  C2_4 
REMARK    4  A    between atoms: C2_4  and  C8_10 
REMARK    5  A    between atoms: C2_4  and  C9_11 
REMARK    6  A    between atoms: C6_8  and  C10_12 
REMARK    7  A    between atoms: C11_13  and  C12_14 
ROOT
ATOM      1  C1  non d   1       2.553   1.357  -0.371  0.00  0.00    -0.008 C 
ATOM      2  C3  non d   1       1.227   1.078  -1.104  0.00  0.00    -0.044 C 
ATOM      3  C4  non d   1       3.523   2.109  -1.310  0.00  0.00    -0.029 C 
ATOM      4  C5  non d   1       0.573   2.301  -1.745  0.00  0.00    -0.032 C 
ATOM      5  C6  non d   1       1.553   3.264  -2.362  0.00  0.00    -0.080 C 
ATOM      6  C7  non d   1       2.879   3.157  -2.172  0.00  0.00    -0.082 C 
ATOM      7  H1  non d   1       3.011   0.370  -0.226  0.00  0.00     0.034 H 
ATOM      8  H2  non d   1       1.444   0.361  -1.910  0.00  0.00     0.027 H 
ATOM      9  H3  non d   1       0.508   0.568  -0.456  0.00  0.00     0.027 H 
ATOM     10  H4  non d   1       4.338   2.567  -0.738  0.00  0.00     0.031 H 
ATOM     11  H5  non d   1       3.997   1.384  -1.984  0.00  0.00     0.031 H 
ATOM     12  H6  non d   1      -0.037   2.830  -1.005  0.00  0.00     0.031 H 
ATOM     13  H7  non d   1      -0.123   1.948  -2.516  0.00  0.00     0.031 H 
ATOM     14  H8  non d   1       3.556   3.858  -2.656  0.00  0.00     0.058 H 
ENDROOT
BRANCH   1  15
ATOM     15  C2  non d   1       2.441   1.989   1.061  0.00  0.00     0.075 C 
BRANCH  15  16
ATOM     16  O1  non d   1       3.764   2.020   1.695  0.00  0.00    -0.203 OA
BRANCH  16  17
ATOM     17  C11 non d   1       4.419   0.882   2.044  0.00  0.00     0.140 C 
ATOM     18  O2  non d   1       4.022  -0.262   1.887  0.00  0.00    -0.255 OA
BRANCH  17  19
ATOM     19  C12 non d   1       5.738   1.234   2.662  0.00  0.00     0.022 C 
ATOM     20  H18 non d   1       6.260   0.317   2.948  0.00  0.00     0.034 H 
ATOM     21  H19 non d   1       5.578   1.837   3.559  0.00  0.00     0.034 H 
ATOM     22  H20 non d   1       6.354   1.774   1.939  0.00  0.00     0.034 H 
ENDBRANCH  17  19
ENDBRANCH  16  17
ENDBRANCH  15  16
BRANCH  15  23
ATOM     23  C8  non d   1       2.030   3.471   1.068  0.00  0.00    -0.035 C 
ATOM     24  H9  non d   1       1.021   3.634   0.685  0.00  0.00     0.026 H 
ATOM     25  H10 non d   1       2.733   4.091   0.504  0.00  0.00     0.026 H 
ATOM     26  H11 non d   1       2.054   3.866   2.092  0.00  0.00     0.026 H 
ENDBRANCH  15  23
BRANCH  15  27
ATOM     27  C9  non d   1       1.450   1.237   1.968  0.00  0.00    -0.035 C 
ATOM     28  H12 non d   1       1.583   1.526   3.017  0.00  0.00     0.026 H 
ATOM     29  H13 non d   1       0.411   1.440   1.688  0.00  0.00     0.026 H 
ATOM     30  H14 non d   1       1.595   0.153   1.918  0.00  0.00     0.026 H 
ENDBRANCH  15  27
ENDBRANCH   1  15
BRANCH   5  31
ATOM     31  C10 non d   1       0.957   4.352  -3.209  0.00  0.00    -0.044 C 
ATOM     32  H15 non d   1       0.407   3.920  -4.051  0.00  0.00     0.028 H 
ATOM     33  H16 non d   1       0.265   4.958  -2.614  0.00  0.00     0.028 H 
ATOM     34  H17 non d   1       1.720   5.022  -3.617  0.00  0.00     0.028 H 
ENDBRANCH   5  31
TORSDOF 7
