REMARK  6 active torsions:
REMARK  status: ('A' for Active; 'I' for Inactive)
REMARK    1  A    between atoms: C1_1  and  C7_7 
REMARK    2  A    between atoms: C1_1  and  C9_9 
REMARK    3  A    between atoms: C2_2  and  C8_8 
REMARK    4  A    between atoms: C8_8  and  C11_11 
REMARK    5  A    between atoms: C10_10  and  C14_14 
REMARK    6  A    between atoms: C10_10  and  C15_15 
ROOT
ATOM      1  C1  non d   1      -2.426  -0.867  -2.848  0.00  0.00    -0.008 C 
ATOM      2  C2  non d   1      -2.370  -0.150  -1.441  0.00  0.00    -0.008 C 
ATOM      3  C3  non d   1      -0.967  -1.063  -3.358  0.00  0.00    -0.040 C 
ATOM      4  C4  non d   1      -1.417  -0.874  -0.457  0.00  0.00    -0.024 C 
ATOM      5  C5  non d   1      -0.023  -1.736  -2.353  0.00  0.00    -0.031 C 
ATOM      6  C6  non d   1      -0.015  -0.987  -1.035  0.00  0.00    -0.073 C 
ATOM      7  C10 non d   1       1.098  -0.477  -0.451  0.00  0.00    -0.075 C 
ATOM      8  H1  non d   1      -1.898   0.831  -1.616  0.00  0.00     0.036 H 
ATOM      9  H2  non d   1      -0.541  -0.085  -3.620  0.00  0.00     0.028 H 
ATOM     10  H3  non d   1      -0.969  -1.650  -4.287  0.00  0.00     0.028 H 
ATOM     11  H4  non d   1      -1.430  -0.356   0.506  0.00  0.00     0.032 H 
ATOM     12  H5  non d   1      -1.774  -1.887  -0.235  0.00  0.00     0.032 H 
ATOM     13  H6  non d   1       0.963  -1.783  -2.820  0.00  0.00     0.031 H 
ATOM     14  H7  non d   1      -0.323  -2.775  -2.175  0.00  0.00     0.031 H 
ENDROOT
BRANCH   1  15
ATOM     15  C7  non d   1      -3.135   0.058  -3.868  0.00  0.00    -0.056 C 
ATOM     16  H8  non d   1      -4.195   0.198  -3.630  0.00  0.00     0.024 H 
ATOM     17  H9  non d   1      -3.074  -0.348  -4.885  0.00  0.00     0.024 H 
ATOM     18  H10 non d   1      -2.669   1.050  -3.890  0.00  0.00     0.024 H 
ENDBRANCH   1  15
BRANCH   1  19
ATOM     19  C9  non d   1      -3.091  -2.248  -2.775  0.00  0.00    -0.091 C 
ATOM     20  C13 non d   1      -4.143  -2.697  -3.475  0.00  0.00    -0.097 C 
ATOM     21  H17 non d   1      -4.514  -3.706  -3.321  0.00  0.00     0.053 H 
ATOM     22  H18 non d   1      -4.666  -2.092  -4.207  0.00  0.00     0.053 H 
ATOM     23  H11 non d   1      -2.653  -2.952  -2.067  0.00  0.00     0.058 H 
ENDBRANCH   1  19
BRANCH   2  24
ATOM     24  C8  non d   1      -3.730   0.155  -0.799  0.00  0.00    -0.084 C 
ATOM     25  C12 non d   1      -4.474  -0.758  -0.151  0.00  0.00    -0.092 C 
ATOM     26  H15 non d   1      -4.166  -1.795  -0.062  0.00  0.00     0.054 H 
ATOM     27  H16 non d   1      -5.425  -0.498   0.304  0.00  0.00     0.054 H 
BRANCH  24  28
ATOM     28  C11 non d   1      -4.190   1.587  -0.883  0.00  0.00    -0.044 C 
ATOM     29  H12 non d   1      -5.164   1.737  -0.405  0.00  0.00     0.028 H 
ATOM     30  H13 non d   1      -4.282   1.907  -1.925  0.00  0.00     0.028 H 
ATOM     31  H14 non d   1      -3.471   2.244  -0.381  0.00  0.00     0.028 H 
ENDBRANCH  24  28
ENDBRANCH   2  24
BRANCH   7  32
ATOM     32  C14 non d   1       2.499  -0.678  -0.980  0.00  0.00    -0.044 C 
ATOM     33  H19 non d   1       2.601  -1.550  -1.628  0.00  0.00     0.028 H 
ATOM     34  H20 non d   1       3.195  -0.843  -0.149  0.00  0.00     0.028 H 
ATOM     35  H21 non d   1       2.826   0.211  -1.529  0.00  0.00     0.028 H 
ENDBRANCH   7  32
BRANCH   7  36
ATOM     36  C15 non d   1       1.085   0.361   0.807  0.00  0.00    -0.044 C 
ATOM     37  H22 non d   1       1.343  -0.256   1.673  0.00  0.00     0.028 H 
ATOM     38  H23 non d   1       0.129   0.853   0.995  0.00  0.00     0.028 H 
ATOM     39  H24 non d   1       1.823   1.168   0.730  0.00  0.00     0.028 H 
ENDBRANCH   7  36
TORSDOF 6
