REMARK  0 active torsions:
REMARK  status: ('A' for Active; 'I' for Inactive)
ROOT
ATOM      1  C1  non d   1       2.143  -0.453  -1.245  0.00  0.00    -0.017 A 
ATOM      2  C2  non d   1       0.472   1.272   0.538  0.00  0.00    -0.017 A 
ATOM      3  C3  non d   1      -0.012  -0.029  -0.039  0.00  0.00    -0.084 A 
ATOM      4  C4  non d   1       0.739  -0.804  -0.840  0.00  0.00    -0.084 A 
ATOM      5  C5  non d   1       1.876   1.623   0.133  0.00  0.00    -0.084 A 
ATOM      6  C6  non d   1       2.627   0.849  -0.667  0.00  0.00    -0.084 A 
ATOM      7  H1  non d   1       2.194  -0.396  -2.338  0.00  0.00     0.035 H 
ATOM      8  H2  non d   1       2.817  -1.255  -0.923  0.00  0.00     0.035 H 
ATOM      9  H3  non d   1      -0.201   2.075   0.216  0.00  0.00     0.035 H 
ATOM     10  H4  non d   1       0.421   1.216   1.631  0.00  0.00     0.035 H 
ATOM     11  H5  non d   1      -1.021  -0.339   0.217  0.00  0.00     0.058 H 
ATOM     12  H6  non d   1       2.284   2.553   0.519  0.00  0.00     0.058 H 
ATOM     13  H7  non d   1       0.331  -1.734  -1.225  0.00  0.00     0.058 H 
ATOM     14  H8  non d   1       3.636   1.158  -0.924  0.00  0.00     0.058 H 
ENDROOT
TORSDOF 0
