@<TRIPOS>MOLECULE
7855
 7 6 0 0 0
SMALL
USER_CHARGES

@<TRIPOS>ATOM
      1 N1          1.1775   -0.0533   -0.0000 N.1     1  noname1    -0.1891
      2 C1         -1.4026    0.0169   -0.0000 C.2     1  noname1     0.0039
      3 C2         -2.0930    1.1641   -0.0000 C.2     1  noname1    -0.0484
      4 C3          0.0184   -0.0190    0.0000 C.1     1  noname1     0.0512
      5 H1         -1.9216   -0.9352    0.0000 H       1  noname1     0.0735
      6 H2         -1.5976    2.1316    0.0000 H       1  noname1     0.0545
      7 H3         -3.1785    1.1582   -0.0000 H       1  noname1     0.0545
@<TRIPOS>BOND
     1     1     4    3
     2     2     3    2
     3     2     4    1
     4     2     5    1
     5     3     6    1
     6     3     7    1
