@<TRIPOS>MOLECULE
31289
 28 27 0 0 0
SMALL
USER_CHARGES

@<TRIPOS>ATOM
      1 O1          1.2614   -0.5327   -0.0718 O.2     1  noname11   -0.3066
      2 C1         -2.3255    4.1329   -1.0909 C.3     1  noname11   -0.0533
      3 C2         -2.8798    5.0510   -2.1815 C.3     1  noname11   -0.0533
      4 C3         -1.6603    2.8936   -1.6920 C.3     1  noname11   -0.0529
      5 C4         -3.5443    6.2908   -1.5806 C.3     1  noname11   -0.0535
      6 C5         -1.1065    1.9757   -0.6021 C.3     1  noname11   -0.0467
      7 C6         -4.0980    7.2081   -2.6706 C.3     1  noname11   -0.0561
      8 C7         -0.4426    0.7410   -1.2008 C.3     1  noname11    0.0030
      9 C8         -4.7590    8.4422   -2.0776 C.3     1  noname11   -0.0654
     10 C9          0.0999   -0.1387   -0.1063 C.2     1  noname11    0.1230
     11 H1         -1.5965    4.6828   -0.4833 H       1  noname11    0.0266
     12 H2         -3.1382    3.8254   -0.4215 H       1  noname11    0.0266
     13 H3         -2.0672    5.3580   -2.8512 H       1  noname11    0.0266
     14 H4         -3.6092    4.5012   -2.7888 H       1  noname11    0.0266
     15 H5         -0.8476    3.2012   -2.3612 H       1  noname11    0.0267
     16 H6         -2.3891    2.3436   -2.2997 H       1  noname11    0.0267
     17 H7         -2.8150    6.8406   -0.9732 H       1  noname11    0.0266
     18 H8         -4.3568    5.9840   -0.9107 H       1  noname11    0.0266
     19 H9         -1.9164    1.6701    0.0722 H       1  noname11    0.0271
     20 H10        -0.3797    2.5230    0.0114 H       1  noname11    0.0271
     21 H11        -3.2889    7.5207   -3.3409 H       1  noname11    0.0264
     22 H12        -4.8310    6.6645   -3.2780 H       1  noname11    0.0264
     23 H13        -1.1641    0.1527   -1.7772 H       1  noname11    0.0343
     24 H14         0.3800    1.0261   -1.8654 H       1  noname11    0.0343
     25 H15        -4.0438    9.0258   -1.4891 H       1  noname11    0.0230
     26 H16        -5.5947    8.1654   -1.4270 H       1  noname11    0.0230
     27 H17        -5.1471    9.0842   -2.8745 H       1  noname11    0.0230
     28 H18        -0.6268   -0.4568    0.6609 H       1  noname11    0.1041
@<TRIPOS>BOND
     1     1    10    2
     2     2     3    1
     3     2     4    1
     4     2    11    1
     5     2    12    1
     6     3     5    1
     7     3    13    1
     8     3    14    1
     9     4     6    1
    10     4    15    1
    11     4    16    1
    12     5     7    1
    13     5    17    1
    14     5    18    1
    15     6     8    1
    16     6    19    1
    17     6    20    1
    18     7     9    1
    19     7    21    1
    20     7    22    1
    21     8    10    1
    22     8    23    1
    23     8    24    1
    24     9    25    1
    25     9    26    1
    26     9    27    1
    27    10    28    1
