REMARK  4 active torsions:
REMARK  status: ('A' for Active; 'I' for Inactive)
REMARK    1  A    between atoms: C1_1  and  C4_4 
REMARK    2  A    between atoms: C4_4  and  C8_8 
REMARK    3  A    between atoms: C4_4  and  C9_9 
REMARK    4  A    between atoms: C6_6  and  C10_10 
ROOT
ATOM      1  C1  non d   1      -1.349   1.482   0.844  0.00  0.00     0.016 C 
ATOM      2  C2  non d   1      -2.139   0.999  -0.288  0.00  0.00    -0.017 C 
ATOM      3  C3  non d   1      -0.802   0.420  -0.136  0.00  0.00    -0.055 C 
ATOM      4  C5  non d   1      -0.394   2.598   0.627  0.00  0.00    -0.069 C 
ATOM      5  C6  non d   1       0.420   0.853  -0.527  0.00  0.00    -0.056 C 
ATOM      6  C7  non d   1       0.624   2.241  -0.171  0.00  0.00    -0.062 C 
ATOM      7  H1  non d   1      -2.286   1.638  -1.152  0.00  0.00     0.033 H 
ATOM      8  H2  non d   1      -2.955   0.307  -0.117  0.00  0.00     0.033 H 
ATOM      9  H4  non d   1      -0.523   3.578   1.065  0.00  0.00     0.059 H 
ATOM     10  H5  non d   1       1.455   2.854  -0.479  0.00  0.00     0.062 H 
ENDROOT
BRANCH   1  11
ATOM     11  C4  non d   1      -1.720   1.044   2.251  0.00  0.00    -0.034 C 
ATOM     12  H3  non d   1      -2.262   0.090   2.196  0.00  0.00     0.031 H 
BRANCH  11  13
ATOM     13  C8  non d   1      -0.496   0.814   3.141  0.00  0.00    -0.062 C 
ATOM     14  H6  non d   1       0.180   0.076   2.698  0.00  0.00     0.023 H 
ATOM     15  H7  non d   1       0.072   1.738   3.297  0.00  0.00     0.023 H 
ATOM     16  H8  non d   1      -0.800   0.441   4.125  0.00  0.00     0.023 H 
ENDBRANCH  11  13
BRANCH  11  17
ATOM     17  C9  non d   1      -2.664   2.062   2.894  0.00  0.00    -0.062 C 
ATOM     18  H9  non d   1      -3.554   2.212   2.275  0.00  0.00     0.023 H 
ATOM     19  H10 non d   1      -2.179   3.036   3.020  0.00  0.00     0.023 H 
ATOM     20  H11 non d   1      -2.992   1.718   3.881  0.00  0.00     0.023 H 
ENDBRANCH  11  17
ENDBRANCH   1  11
BRANCH   5  21
ATOM     21  C10 non d   1       1.532   0.010  -1.037  0.00  0.00    -0.040 C 
ATOM     22  H12 non d   1       1.234  -1.041  -1.112  0.00  0.00     0.028 H 
ATOM     23  H13 non d   1       2.401   0.065  -0.373  0.00  0.00     0.028 H 
ATOM     24  H14 non d   1       1.837   0.343  -2.034  0.00  0.00     0.028 H 
ENDBRANCH   5  21
TORSDOF 4
