@<TRIPOS>MOLECULE
6918391
 39 39 0 0 0
SMALL
USER_CHARGES

@<TRIPOS>ATOM
      1 C1          0.0985   -0.4057    3.7189 C.3     1  noname1    -0.0083
      2 C2         -0.1487    0.8473    2.7892 C.3     1  noname1    -0.0114
      3 C3          1.5753   -0.0936    1.0455 C.3     1  noname1    -0.0202
      4 C4          1.0624    1.1188    1.8575 C.3     1  noname1    -0.0393
      5 C5          0.6457   -1.6120    2.9122 C.3     1  noname1    -0.0432
      6 C6          1.8291   -1.2797    1.9965 C.3     1  noname1    -0.0458
      7 C7         -1.2005   -0.8493    4.4349 C.3     1  noname1    -0.0556
      8 C8         -1.4658    0.9912    2.0094 C.2     1  noname1    -0.0845
      9 C9          1.1661   -0.0159    4.7691 C.2     1  noname1    -0.0911
     10 C10         0.7811   -0.3932   -0.2308 C.2     1  noname1    -0.0851
     11 C11        -1.9924    2.4054    1.9175 C.3     1  noname1    -0.0439
     12 C12         0.6296    0.7574   -1.1982 C.3     1  noname1    -0.0439
     13 C13        -2.1607    0.0001    1.4278 C.2     1  noname1    -0.0917
     14 C14         1.0233    0.1041    6.0974 C.2     1  noname1    -0.0965
     15 C15         0.2866   -1.5963   -0.5740 C.2     1  noname1    -0.0920
     16 H1         -0.1734    1.7013    3.4865 H       1  noname1     0.0357
     17 H2          2.5705    0.1938    0.6719 H       1  noname1     0.0348
     18 H3          1.8968    1.4675    2.4821 H       1  noname1     0.0279
     19 H4          0.8566    1.9699    1.1982 H       1  noname1     0.0279
     20 H5         -0.1526   -2.0582    2.3122 H       1  noname1     0.0276
     21 H6          0.9605   -2.4061    3.6035 H       1  noname1     0.0276
     22 H7          2.7034   -1.0436    2.6163 H       1  noname1     0.0273
     23 H8          2.1249   -2.1755    1.4376 H       1  noname1     0.0273
     24 H9         -1.9320   -1.2811    3.7470 H       1  noname1     0.0239
     25 H10        -1.6838   -0.0087    4.9462 H       1  noname1     0.0239
     26 H11        -0.9998   -1.6304    5.1786 H       1  noname1     0.0239
     27 H12         2.1610    0.2017    4.3825 H       1  noname1     0.0575
     28 H13        -2.9188    2.4673    1.3363 H       1  noname1     0.0276
     29 H14        -2.2051    2.7958    2.9182 H       1  noname1     0.0276
     30 H15        -1.2590    3.0595    1.4360 H       1  noname1     0.0276
     31 H16         0.2514    0.4298   -2.1729 H       1  noname1     0.0276
     32 H17        -0.0705    1.5035   -0.8118 H       1  noname1     0.0276
     33 H18         1.5975    1.2387   -1.3729 H       1  noname1     0.0276
     34 H19        -1.8344   -1.0310    1.4397 H       1  noname1     0.0537
     35 H20        -3.0862    0.1943    0.8933 H       1  noname1     0.0537
     36 H21         1.8687    0.3933    6.7156 H       1  noname1     0.0534
     37 H22         0.0846   -0.0699    6.6111 H       1  noname1     0.0534
     38 H23         0.3850   -2.4772    0.0487 H       1  noname1     0.0537
     39 H24        -0.2462   -1.7401   -1.5102 H       1  noname1     0.0537
@<TRIPOS>BOND
     1     1     2    1
     2     1     5    1
     3     1     7    1
     4     1     9    1
     5     2     4    1
     6     2     8    1
     7     2    16    1
     8     3     4    1
     9     3     6    1
    10     3    10    1
    11     3    17    1
    12     4    18    1
    13     4    19    1
    14     5     6    1
    15     5    20    1
    16     5    21    1
    17     6    22    1
    18     6    23    1
    19     7    24    1
    20     7    25    1
    21     7    26    1
    22     8    11    1
    23     8    13    2
    24     9    14    2
    25     9    27    1
    26    10    12    1
    27    10    15    2
    28    11    28    1
    29    11    29    1
    30    11    30    1
    31    12    31    1
    32    12    32    1
    33    12    33    1
    34    13    34    1
    35    13    35    1
    36    14    36    1
    37    14    37    1
    38    15    38    1
    39    15    39    1
