REMARK  5 active torsions:
REMARK  status: ('A' for Active; 'I' for Inactive)
REMARK    1  A    between atoms: C2_2  and  C7_7 
REMARK    2  A    between atoms: C3_3  and  C9_9 
REMARK    3  A    between atoms: C7_7  and  C13_13 
REMARK    4  A    between atoms: C7_7  and  C14_14 
REMARK    5  A    between atoms: C12_12  and  C15_15 
ROOT
ATOM      1  C1  non d   1      -1.659   2.241   1.283  0.00  0.00    -0.014 C 
ATOM      2  C2  non d   1      -3.284   0.624   0.031  0.00  0.00    -0.017 C 
ATOM      3  C3  non d   1      -2.809   3.284   1.405  0.00  0.00    -0.037 C 
ATOM      4  C4  non d   1      -1.877   1.183   0.208  0.00  0.00    -0.062 C 
ATOM      5  C5  non d   1      -4.220   1.146   1.137  0.00  0.00    -0.046 C 
ATOM      6  C6  non d   1      -4.216   2.659   1.290  0.00  0.00    -0.050 C 
ATOM      7  C8  non d   1      -0.252   2.899   1.241  0.00  0.00    -0.028 C 
ATOM      8  C10 non d   1      -0.829   0.636  -0.439  0.00  0.00    -0.061 C 
ATOM      9  C11 non d   1       0.823   2.047   0.631  0.00  0.00    -0.072 C 
ATOM     10  C12 non d   1       0.546   1.002  -0.163  0.00  0.00    -0.064 C 
ATOM     11  H1  non d   1      -1.682   1.670   2.226  0.00  0.00     0.035 H 
ATOM     12  H2  non d   1      -3.201  -0.454   0.247  0.00  0.00     0.035 H 
ATOM     13  H3  non d   1      -2.736   3.701   2.421  0.00  0.00     0.031 H 
ATOM     14  H4  non d   1      -5.247   0.794   0.992  0.00  0.00     0.027 H 
ATOM     15  H5  non d   1      -3.906   0.707   2.095  0.00  0.00     0.027 H 
ATOM     16  H6  non d   1      -4.782   3.105   0.466  0.00  0.00     0.027 H 
ATOM     17  H7  non d   1      -4.787   2.916   2.192  0.00  0.00     0.027 H 
ATOM     18  H9  non d   1       0.039   3.163   2.265  0.00  0.00     0.032 H 
ATOM     19  H10 non d   1      -0.252   3.832   0.669  0.00  0.00     0.032 H 
ATOM     20  H14 non d   1      -0.985  -0.166  -1.157  0.00  0.00     0.062 H 
ATOM     21  H15 non d   1       1.852   2.335   0.826  0.00  0.00     0.058 H 
ENDROOT
BRANCH   2  22
ATOM     22  C7  non d   1      -3.824   0.687  -1.433  0.00  0.00    -0.041 C 
ATOM     23  H8  non d   1      -3.178   0.032  -2.035  0.00  0.00     0.030 H 
BRANCH  22  24
ATOM     24  C13 non d   1      -5.237   0.108  -1.564  0.00  0.00    -0.062 C 
ATOM     25  H16 non d   1      -5.308  -0.869  -1.076  0.00  0.00     0.023 H 
ATOM     26  H17 non d   1      -5.990   0.772  -1.127  0.00  0.00     0.023 H 
ATOM     27  H18 non d   1      -5.498  -0.030  -2.619  0.00  0.00     0.023 H 
ENDBRANCH  22  24
BRANCH  22  28
ATOM     28  C14 non d   1      -3.769   2.059  -2.103  0.00  0.00    -0.062 C 
ATOM     29  H19 non d   1      -2.755   2.467  -2.101  0.00  0.00     0.023 H 
ATOM     30  H20 non d   1      -4.441   2.778  -1.630  0.00  0.00     0.023 H 
ATOM     31  H21 non d   1      -4.075   1.980  -3.153  0.00  0.00     0.023 H 
ENDBRANCH  22  28
ENDBRANCH   2  22
BRANCH   3  32
ATOM     32  C9  non d   1      -2.705   4.490   0.463  0.00  0.00    -0.062 C 
ATOM     33  H11 non d   1      -2.536   4.184  -0.572  0.00  0.00     0.023 H 
ATOM     34  H12 non d   1      -1.891   5.157   0.760  0.00  0.00     0.023 H 
ATOM     35  H13 non d   1      -3.619   5.095   0.495  0.00  0.00     0.023 H 
ENDBRANCH   3  32
BRANCH  10  36
ATOM     36  C15 non d   1       1.613   0.167  -0.807  0.00  0.00    -0.040 C 
ATOM     37  H22 non d   1       1.528  -0.878  -0.489  0.00  0.00     0.028 H 
ATOM     38  H23 non d   1       2.618   0.513  -0.541  0.00  0.00     0.028 H 
ATOM     39  H24 non d   1       1.527   0.206  -1.898  0.00  0.00     0.028 H 
ENDBRANCH  10  36
TORSDOF 5
