REMARK  4 active torsions:
REMARK  status: ('A' for Active; 'I' for Inactive)
REMARK    1  A    between atoms: C1_2  and  C6_7 
REMARK    2  A    between atoms: C4_5  and  C8_9 
REMARK    3  A    between atoms: C6_7  and  C9_10 
REMARK    4  A    between atoms: C6_7  and  C10_11 
ROOT
ATOM      1  O1  non d   1       1.339  -0.010  -0.154  0.00  0.00    -0.298 OA
ATOM      2  C1  non d   1      -2.128   0.796   0.339  0.00  0.00    -0.017 C 
ATOM      3  C2  non d   1      -2.161  -0.704   0.198  0.00  0.00    -0.025 C 
ATOM      4  C3  non d   1      -2.500  -0.076   1.524  0.00  0.00    -0.043 C 
ATOM      5  C4  non d   1      -0.770  -1.234  -0.068  0.00  0.00     0.018 C 
ATOM      6  C5  non d   1      -0.688   1.269   0.234  0.00  0.00     0.013 C 
ATOM      7  C7  non d   1       0.122   0.005  -0.011  0.00  0.00     0.135 C 
ATOM      8  H1  non d   1      -2.954  -1.194  -0.349  0.00  0.00     0.032 H 
ATOM      9  H2  non d   1      -1.798  -0.172   2.346  0.00  0.00     0.028 H 
ATOM     10  H3  non d   1      -3.536  -0.106   1.846  0.00  0.00     0.028 H 
ATOM     11  H4  non d   1      -0.474  -1.922   0.730  0.00  0.00     0.038 H 
ATOM     12  H5  non d   1      -0.529   1.948  -0.607  0.00  0.00     0.035 H 
ATOM     13  H6  non d   1      -0.363   1.738   1.167  0.00  0.00     0.035 H 
ENDROOT
BRANCH   2  14
ATOM     14  C6  non d   1      -3.220   1.641  -0.293  0.00  0.00    -0.041 C 
ATOM     15  H7  non d   1      -4.190   1.169  -0.087  0.00  0.00     0.030 H 
BRANCH  14  16
ATOM     16  C9  non d   1      -3.081   1.720  -1.814  0.00  0.00    -0.062 C 
ATOM     17  H11 non d   1      -3.047   0.719  -2.257  0.00  0.00     0.023 H 
ATOM     18  H12 non d   1      -2.172   2.249  -2.116  0.00  0.00     0.023 H 
ATOM     19  H13 non d   1      -3.934   2.251  -2.251  0.00  0.00     0.023 H 
ENDBRANCH  14  16
BRANCH  14  20
ATOM     20  C10 non d   1      -3.260   3.039   0.323  0.00  0.00    -0.062 C 
ATOM     21  H14 non d   1      -3.378   2.981   1.411  0.00  0.00     0.023 H 
ATOM     22  H15 non d   1      -2.341   3.598   0.118  0.00  0.00     0.023 H 
ATOM     23  H16 non d   1      -4.101   3.616  -0.077  0.00  0.00     0.023 H 
ENDBRANCH  14  20
ENDBRANCH   2  14
BRANCH   5  24
ATOM     24  C8  non d   1      -0.662  -1.896  -1.431  0.00  0.00    -0.055 C 
ATOM     25  H8  non d   1      -0.929  -1.200  -2.235  0.00  0.00     0.024 H 
ATOM     26  H9  non d   1       0.359  -2.242  -1.618  0.00  0.00     0.024 H 
ATOM     27  H10 non d   1      -1.334  -2.758  -1.500  0.00  0.00     0.024 H 
ENDBRANCH   5  24
TORSDOF 4
