REMARK  3 active torsions:
REMARK  status: ('A' for Active; 'I' for Inactive)
REMARK    1  A    between atoms: C2_3  and  C8_9 
REMARK    2  A    between atoms: C3_4  and  C9_10 
REMARK    3  A    between atoms: C3_4  and  C10_11 
ROOT
ATOM      1  O1  non d   1       1.475   1.420  -0.122  0.00  0.00    -0.369 OA
ATOM      2  C1  non d   1       1.766  -0.688  -1.356  0.00  0.00    -0.012 C 
ATOM      3  C2  non d   1       1.935   1.863  -1.415  0.00  0.00     0.066 C 
ATOM      4  C3  non d   1       1.354  -0.015  -0.014  0.00  0.00     0.066 C 
ATOM      5  C4  non d   1       3.210  -0.283  -1.711  0.00  0.00    -0.045 C 
ATOM      6  C5  non d   1       0.880  -0.146  -2.494  0.00  0.00    -0.045 C 
ATOM      7  C6  non d   1       3.323   1.246  -1.674  0.00  0.00    -0.024 C 
ATOM      8  C7  non d   1       0.929   1.386  -2.479  0.00  0.00    -0.024 C 
ATOM      9  H1  non d   1       1.683  -1.779  -1.299  0.00  0.00     0.033 H 
ATOM     10  H2  non d   1       3.475  -0.652  -2.709  0.00  0.00     0.027 H 
ATOM     11  H3  non d   1       3.933  -0.736  -1.024  0.00  0.00     0.027 H 
ATOM     12  H4  non d   1       1.233  -0.520  -3.463  0.00  0.00     0.027 H 
ATOM     13  H5  non d   1      -0.153  -0.496  -2.398  0.00  0.00     0.027 H 
ATOM     14  H6  non d   1       4.016   1.528  -0.872  0.00  0.00     0.030 H 
ATOM     15  H7  non d   1       3.749   1.612  -2.616  0.00  0.00     0.030 H 
ATOM     16  H8  non d   1       1.197   1.762  -3.473  0.00  0.00     0.030 H 
ATOM     17  H9  non d   1      -0.073   1.768  -2.246  0.00  0.00     0.030 H 
ENDROOT
BRANCH   4  18
ATOM     18  C9  non d   1      -0.103  -0.320   0.364  0.00  0.00    -0.036 C 
ATOM     19  H13 non d   1      -0.812   0.131  -0.337  0.00  0.00     0.026 H 
ATOM     20  H14 non d   1      -0.350   0.111   1.342  0.00  0.00     0.026 H 
ATOM     21  H15 non d   1      -0.287  -1.399   0.408  0.00  0.00     0.026 H 
ENDBRANCH   4  18
BRANCH   4  22
ATOM     22  C10 non d   1       2.248  -0.458   1.155  0.00  0.00    -0.036 C 
ATOM     23  H16 non d   1       3.278  -0.109   1.038  0.00  0.00     0.026 H 
ATOM     24  H17 non d   1       1.899  -0.021   2.098  0.00  0.00     0.026 H 
ATOM     25  H18 non d   1       2.254  -1.548   1.263  0.00  0.00     0.026 H 
ENDBRANCH   4  22
BRANCH   3  26
ATOM     26  C8  non d   1       2.012   3.386  -1.377  0.00  0.00    -0.036 C 
ATOM     27  H10 non d   1       1.032   3.820  -1.146  0.00  0.00     0.026 H 
ATOM     28  H11 non d   1       2.357   3.797  -2.331  0.00  0.00     0.026 H 
ATOM     29  H12 non d   1       2.694   3.722  -0.587  0.00  0.00     0.026 H 
ENDBRANCH   3  26
TORSDOF 3
