REMARK  10 active torsions:
REMARK  status: ('A' for Active; 'I' for Inactive)
REMARK    1  A    between atoms: O1_1  and  C3_5 
REMARK    2  A    between atoms: O1_1  and  C11_13 
REMARK    3  A    between atoms: C1_3  and  C2_4 
REMARK    4  A    between atoms: C1_3  and  C3_5 
REMARK    5  A    between atoms: C1_3  and  C4_6 
REMARK    6  A    between atoms: C2_4  and  C5_7 
REMARK    7  A    between atoms: C4_6  and  C6_8 
REMARK    8  A    between atoms: C7_9  and  C9_11 
REMARK    9  A    between atoms: C7_9  and  C10_12 
REMARK   10  A    between atoms: C11_13  and  C12_14 
ROOT
ATOM      1  C1  non d   1      -0.339  -2.635  -1.689  0.00  0.00     0.007 C 
ATOM      2  H1  non d   1       0.583  -2.971  -1.192  0.00  0.00     0.037 H 
ENDROOT
BRANCH   1   3
ATOM      3  C2  non d   1      -1.338  -3.815  -1.668  0.00  0.00    -0.026 C 
ATOM      4  H2  non d   1      -0.953  -4.630  -2.289  0.00  0.00     0.032 H 
ATOM      5  H3  non d   1      -2.284  -3.524  -2.142  0.00  0.00     0.032 H 
BRANCH   3   6
ATOM      6  C5  non d   1      -1.644  -4.314  -0.279  0.00  0.00    -0.084 C 
ATOM      7  C7  non d   1      -1.156  -5.413   0.328  0.00  0.00    -0.082 C 
ATOM      8  H6  non d   1      -2.358  -3.696   0.266  0.00  0.00     0.058 H 
BRANCH   7   9
ATOM      9  C9  non d   1      -1.599  -5.780   1.720  0.00  0.00    -0.044 C 
ATOM     10  H12 non d   1      -0.743  -5.786   2.402  0.00  0.00     0.028 H 
ATOM     11  H13 non d   1      -2.338  -5.078   2.121  0.00  0.00     0.028 H 
ATOM     12  H14 non d   1      -2.053  -6.777   1.723  0.00  0.00     0.028 H 
ENDBRANCH   7   9
BRANCH   7  13
ATOM     13  C10 non d   1      -0.147  -6.356  -0.268  0.00  0.00    -0.044 C 
ATOM     14  H15 non d   1      -0.603  -7.335  -0.441  0.00  0.00     0.028 H 
ATOM     15  H16 non d   1       0.269  -6.004  -1.214  0.00  0.00     0.028 H 
ATOM     16  H17 non d   1       0.697  -6.486   0.419  0.00  0.00     0.028 H 
ENDBRANCH   7  13
ENDBRANCH   3   6
ENDBRANCH   1   3
BRANCH   1  17
ATOM     17  C3  non d   1       0.046  -2.315  -3.148  0.00  0.00     0.063 C 
ATOM     18  H4  non d   1       0.412  -3.225  -3.639  0.00  0.00     0.058 H 
ATOM     19  H5  non d   1      -0.818  -1.940  -3.710  0.00  0.00     0.058 H 
BRANCH  17  20
ATOM     20  O1  non d   1       1.105  -1.344  -3.163  0.00  0.00    -0.208 OA
BRANCH  20  21
ATOM     21  C11 non d   1       1.450  -0.909  -4.404  0.00  0.00     0.138 C 
ATOM     22  O2  non d   1       0.951  -1.287  -5.454  0.00  0.00    -0.255 OA
BRANCH  21  23
ATOM     23  C12 non d   1       2.544   0.110  -4.304  0.00  0.00     0.022 C 
ATOM     24  H18 non d   1       2.205   0.961  -3.708  0.00  0.00     0.034 H 
ATOM     25  H19 non d   1       3.433  -0.344  -3.857  0.00  0.00     0.034 H 
ATOM     26  H20 non d   1       2.800   0.466  -5.306  0.00  0.00     0.034 H 
ENDBRANCH  21  23
ENDBRANCH  20  21
ENDBRANCH  17  20
ENDBRANCH   1  17
BRANCH   1  27
ATOM     27  C4  non d   1      -0.852  -1.398  -0.940  0.00  0.00    -0.083 C 
ATOM     28  C8  non d   1      -0.234  -0.956   0.170  0.00  0.00    -0.091 C 
ATOM     29  H10 non d   1       0.641  -1.458   0.572  0.00  0.00     0.054 H 
ATOM     30  H11 non d   1      -0.586  -0.082   0.710  0.00  0.00     0.054 H 
BRANCH  27  31
ATOM     31  C6  non d   1      -2.066  -0.688  -1.475  0.00  0.00    -0.044 C 
ATOM     32  H7  non d   1      -2.923  -1.366  -1.530  0.00  0.00     0.028 H 
ATOM     33  H8  non d   1      -2.361   0.153  -0.837  0.00  0.00     0.028 H 
ATOM     34  H9  non d   1      -1.872  -0.284  -2.473  0.00  0.00     0.028 H 
ENDBRANCH  27  31
ENDBRANCH   1  27
TORSDOF 10
