@<TRIPOS>MOLECULE
637563
 23 23 0 0 0
SMALL
USER_CHARGES

@<TRIPOS>ATOM
      1 O1         -5.1335    3.2987    2.3696 O.3     1  noname1    -0.2778
      2 C1         -3.6518   -0.4667    1.5769 C.ar    1  noname1    -0.0564
      3 C2         -4.8129   -0.2688    2.2430 C.ar    1  noname1    -0.0422
      4 C3         -2.9741    0.6197    1.1379 C.ar    1  noname1    -0.0422
      5 C4         -4.5820    2.0648    2.0663 C.ar    1  noname1    -0.0017
      6 C5         -5.2631    0.9782    2.4868 C.ar    1  noname1    -0.0282
      7 C6         -3.4283    1.8672    1.3830 C.ar    1  noname1    -0.0282
      8 C7         -3.2107   -1.8292    1.3024 C.2     1  noname1    -0.0615
      9 C8         -1.9343   -2.2426    1.2363 C.2     1  noname1    -0.0755
     10 C9         -1.5329   -3.6556    0.9612 C.3     1  noname1    -0.0466
     11 C10        -4.4404    4.4652    1.9459 C.3     1  noname1     0.0423
     12 H1         -5.3981   -1.1124    2.6003 H       1  noname1     0.0629
     13 H2         -2.0525    0.5067    0.5735 H       1  noname1     0.0629
     14 H3         -6.1939    1.1126    3.0313 H       1  noname1     0.0650
     15 H4         -2.8408    2.6986    1.0105 H       1  noname1     0.0650
     16 H5         -4.0068   -2.5598    1.1620 H       1  noname1     0.0625
     17 H6         -1.1186   -1.5433    1.4021 H       1  noname1     0.0573
     18 H7         -0.9479   -4.0464    1.7993 H       1  noname1     0.0273
     19 H8         -2.3967   -4.3113    0.8126 H       1  noname1     0.0273
     20 H9         -0.9138   -3.6977    0.0599 H       1  noname1     0.0273
     21 H10        -5.0154    5.3359    2.2751 H       1  noname1     0.0535
     22 H11        -3.4497    4.5229    2.4083 H       1  noname1     0.0535
     23 H12        -4.3684    4.5039    0.8542 H       1  noname1     0.0535
@<TRIPOS>BOND
     1     1     5    1
     2     1    11    1
     3     2     3   ar
     4     2     4   ar
     5     2     8    1
     6     3     6   ar
     7     3    12    1
     8     4     7   ar
     9     4    13    1
    10     5     6   ar
    11     5     7   ar
    12     6    14    1
    13     7    15    1
    14     8     9    2
    15     8    16    1
    16     9    10    1
    17     9    17    1
    18    10    18    1
    19    10    19    1
    20    10    20    1
    21    11    21    1
    22    11    22    1
    23    11    23    1
