REMARK  4 active torsions:
REMARK  status: ('A' for Active; 'I' for Inactive)
REMARK    1  A    between atoms: C1_1  and  C6_6 
REMARK    2  A    between atoms: C1_1  and  C7_7 
REMARK    3  A    between atoms: C8_8  and  C13_13 
REMARK    4  A    between atoms: C11_11  and  C15_15 
ROOT
ATOM      1  C1  non d   1       4.569   1.895   0.000  0.00  0.00    -0.031 C 
ATOM      2  C2  non d   1       4.173   0.393   0.000  0.00  0.00    -0.029 A 
ATOM      3  C3  non d   1       5.660  -0.005   0.000  0.00  0.00    -0.017 A 
ATOM      4  C4  non d   1       6.068   1.493   0.000  0.00  0.00    -0.041 C 
ATOM      5  C5  non d   1       3.774  -1.095   0.000  0.00  0.00    -0.046 A 
ATOM      6  C8  non d   1       6.994   0.764   0.000  0.00  0.00    -0.083 A 
ATOM      7  C9  non d   1       4.544  -2.428   0.000  0.00  0.00    -0.032 A 
ATOM      8  C10 non d   1       8.328  -0.005   0.000  0.00  0.00    -0.029 A 
ATOM      9  C11 non d   1       5.878  -1.658   0.000  0.00  0.00    -0.080 A 
ATOM     10  C12 non d   1       8.545  -1.658   0.000  0.00  0.00    -0.031 A 
ATOM     11  C14 non d   1       7.212  -2.428   0.000  0.00  0.00    -0.082 A 
ATOM     12  H1  non d   1       2.908   0.729   0.000  0.00  0.00     0.031 H 
ATOM     13  H2  non d   1       5.831  -1.303   0.000  0.00  0.00     0.035 H 
ATOM     14  H3  non d   1       6.990   1.243   0.000  0.00  0.00     0.028 H 
ATOM     15  H4  non d   1       6.317   2.415   0.000  0.00  0.00     0.028 H 
ATOM     16  H5  non d   1       2.947  -0.617   0.000  0.00  0.00     0.027 H 
ATOM     17  H6  non d   1       3.099  -1.770   0.000  0.00  0.00     0.027 H 
ATOM     18  H13 non d   1       3.717  -2.906   0.000  0.00  0.00     0.031 H 
ATOM     19  H14 non d   1       5.022  -3.255   0.000  0.00  0.00     0.031 H 
ATOM     20  H15 non d   1       9.279  -0.089   0.000  0.00  0.00     0.032 H 
ATOM     21  H16 non d   1       8.615   0.905   0.000  0.00  0.00     0.032 H 
ATOM     22  H17 non d   1       8.911  -2.540   0.000  0.00  0.00     0.031 H 
ATOM     23  H18 non d   1       9.467  -1.411   0.000  0.00  0.00     0.031 H 
ATOM     24  H21 non d   1       7.212  -3.383   0.000  0.00  0.00     0.058 H 
ENDROOT
BRANCH   1  25
ATOM     25  C6  non d   1       4.964   3.383   0.000  0.00  0.00    -0.060 C 
ATOM     26  H7  non d   1       5.887   3.138   0.000  0.00  0.00     0.024 H 
ATOM     27  H8  non d   1       5.209   4.306   0.000  0.00  0.00     0.024 H 
ATOM     28  H9  non d   1       4.041   3.628   0.000  0.00  0.00     0.024 H 
ENDBRANCH   1  25
BRANCH   1  29
ATOM     29  C7  non d   1       3.080   2.290   0.000  0.00  0.00    -0.060 C 
ATOM     30  H10 non d   1       3.325   3.213   0.000  0.00  0.00     0.024 H 
ATOM     31  H11 non d   1       2.157   2.535   0.000  0.00  0.00     0.024 H 
ATOM     32  H12 non d   1       2.835   1.367   0.000  0.00  0.00     0.024 H 
ENDBRANCH   1  29
BRANCH   6  33
ATOM     33  C13 non d   1       6.994   2.304   0.000  0.00  0.00    -0.090 C 
ATOM     34  H19 non d   1       7.821   2.782   0.000  0.00  0.00     0.054 H 
ATOM     35  H20 non d   1       6.167   2.782   0.000  0.00  0.00     0.054 H 
ENDBRANCH   6  33
BRANCH   9  36
ATOM     36  C15 non d   1       5.878  -0.118   0.000  0.00  0.00    -0.044 C 
ATOM     37  H22 non d   1       6.833  -0.118   0.000  0.00  0.00     0.028 H 
ATOM     38  H23 non d   1       5.878   0.837   0.000  0.00  0.00     0.028 H 
ATOM     39  H24 non d   1       4.923  -0.118   0.000  0.00  0.00     0.028 H 
ENDBRANCH   9  36
TORSDOF 4
