@<TRIPOS>MOLECULE
2537
 27 28 0 0 0
SMALL
USER_CHARGES

@<TRIPOS>ATOM
      1 O1          1.3012   -0.0759    0.2641 O.2     1  noname1    -0.2970
      2 C1         -1.9142   -0.7429   -0.9332 C.3     1  noname1    -0.0198
      3 C2         -0.8208   -1.2935    0.0233 C.3     1  noname1     0.0315
      4 C3         -2.1540    0.5105   -0.0460 C.3     1  noname1    -0.0284
      5 C4         -1.5181   -1.3287    1.4028 C.3     1  noname1    -0.0401
      6 C5         -2.4543   -0.1007    1.3464 C.3     1  noname1    -0.0485
      7 C6         -0.7634    1.1870    0.0410 C.3     1  noname1     0.0100
      8 C7          0.0884   -0.0643    0.1216 C.2     1  noname1     0.1374
      9 C8         -1.4213   -0.4267   -2.3601 C.3     1  noname1    -0.0587
     10 C9         -3.1561   -1.6423   -1.0873 C.3     1  noname1    -0.0587
     11 C10        -0.1157   -2.5691   -0.3702 C.3     1  noname1    -0.0522
     12 H1         -2.9367    1.1893   -0.3933 H       1  noname1     0.0313
     13 H2         -2.0924   -2.2488    1.5549 H       1  noname1     0.0277
     14 H3         -0.8062   -1.2381    2.2314 H       1  noname1     0.0277
     15 H4         -3.5021   -0.4075    1.4306 H       1  noname1     0.0270
     16 H5         -2.2523    0.6001    2.1634 H       1  noname1     0.0270
     17 H6         -0.5210    1.7567   -0.8587 H       1  noname1     0.0349
     18 H7         -0.6466    1.8025    0.9358 H       1  noname1     0.0349
     19 H8         -1.2735   -1.3494   -2.9331 H       1  noname1     0.0236
     20 H9         -2.1605    0.1819   -2.8930 H       1  noname1     0.0236
     21 H10        -0.4700    0.1112   -2.3942 H       1  noname1     0.0236
     22 H11        -3.9497   -1.1066   -1.6207 H       1  noname1     0.0236
     23 H12        -3.5831   -1.9869   -0.1429 H       1  noname1     0.0236
     24 H13        -2.9143   -2.5412   -1.6659 H       1  noname1     0.0236
     25 H14         0.4134   -2.4558   -1.3222 H       1  noname1     0.0241
     26 H15         0.6306   -2.8504    0.3810 H       1  noname1     0.0241
     27 H16        -0.8206   -3.4005   -0.4690 H       1  noname1     0.0241
@<TRIPOS>BOND
     1     1     8    2
     2     2     3    1
     3     2     4    1
     4     2     9    1
     5     2    10    1
     6     3     5    1
     7     3     8    1
     8     3    11    1
     9     4     6    1
    10     4     7    1
    11     4    12    1
    12     5     6    1
    13     5    13    1
    14     5    14    1
    15     6    15    1
    16     6    16    1
    17     7     8    1
    18     7    17    1
    19     7    18    1
    20     9    19    1
    21     9    20    1
    22     9    21    1
    23    10    22    1
    24    10    23    1
    25    10    24    1
    26    11    25    1
    27    11    26    1
    28    11    27    1
