@<TRIPOS>MOLECULE
85582292
24 25 1
SMALL
USER_CHARGES
@<TRIPOS>ATOM
1	C1    -1.3485     1.4824     0.8435	C.3	1	noname	0.0161
2	C2    -2.1392     0.9992    -0.2880	C.3	1	noname	-0.0173
3	C3    -0.8022     0.4198    -0.1362	C.2	1	noname	-0.0547
4	C4    -1.7197     1.0438     2.2507	C.3	1	noname	-0.0338
5	C5    -0.3936     2.5980     0.6269	C.2	1	noname	-0.0688
6	C6     0.4204     0.8526    -0.5268	C.2	1	noname	-0.0564
7	C7     0.6241     2.2414    -0.1705	C.2	1	noname	-0.0625
8	C8    -0.4961     0.8143     3.1414	C.3	1	noname	-0.0616
9	C9    -2.6636     2.0620     2.8945	C.3	1	noname	-0.0616
10	C10     1.5320     0.0100    -1.0372	C.3	1	noname	-0.0398
11	H1    -2.2864     1.6376    -1.1517	H	1	noname	0.0325
12	H2    -2.9549     0.3072    -0.1175	H	1	noname	0.0325
13	H3    -2.2620     0.0897     2.1965	H	1	noname	0.0309
14	H4    -0.5230     3.5784     1.0647	H	1	noname	0.0585
15	H5     1.4552     2.8542    -0.4795	H	1	noname	0.0622
16	H6     0.1804     0.0759     2.6984	H	1	noname	0.0233
17	H7     0.0720     1.7378     3.2967	H	1	noname	0.0233
18	H8    -0.8002     0.4407     4.1251	H	1	noname	0.0233
19	H9    -3.5543     2.2119     2.2749	H	1	noname	0.0233
20	H10    -2.1792     3.0363     3.0203	H	1	noname	0.0233
21	H11    -2.9924     1.7183     3.8809	H	1	noname	0.0233
22	H12     1.2342    -1.0411    -1.1122	H	1	noname	0.0279
23	H13     2.4005     0.0654    -0.3726	H	1	noname	0.0279
24	H14     1.8372     0.3434    -2.0343	H	1	noname	0.0279
@<TRIPOS>BOND
1	1	2	1
2	1	3	1
3	1	4	1
4	1	5	1
5	2	3	1
6	2	11	1
7	2	12	1
8	3	6	2
9	4	8	1
10	4	9	1
11	4	13	1
12	5	7	2
13	5	14	1
14	6	7	1
15	6	10	1
16	7	15	1
17	8	16	1
18	8	17	1
19	8	18	1
20	9	19	1
21	9	20	1
22	9	21	1
23	10	22	1
24	10	23	1
25	10	24	1
@<TRIPOS>SUBSTRUCTURE
1	noname	1
