@<TRIPOS>MOLECULE
68316
 25 25 0 0 0
SMALL
USER_CHARGES

@<TRIPOS>ATOM
      1 O1         -1.3069   -4.6588   -2.9737 O.2     1  noname11   -0.3891
      2 C1          1.0500   -4.2228   -0.0837 C.3     1  noname11    0.0209
      3 C2          2.4718   -3.8950   -0.5491 C.3     1  noname11   -0.0307
      4 C3          0.0542   -4.1056   -1.1959 C.ar    1  noname11    0.0013
      5 C4          3.4566   -3.9964    0.5845 C.2     1  noname11   -0.0837
      6 C5          4.3351   -4.9896    0.8239 C.2     1  noname11   -0.0821
      7 C6         -0.6689   -3.0184   -1.5039 C.ar    1  noname11    0.0016
      8 C7         -0.3064   -5.0898   -2.0339 C.ar    1  noname11    0.0220
      9 C8          5.2813   -4.9125    1.9940 C.3     1  noname11   -0.0442
     10 C9          4.4685   -6.2429    0.0033 C.3     1  noname11   -0.0442
     11 C10        -1.4667   -3.3082   -2.5378 C.ar    1  noname11    0.0336
     12 H1          0.7610   -3.5555    0.7394 H       1  noname11    0.0320
     13 H2          1.0167   -5.2392    0.3312 H       1  noname11    0.0320
     14 H3          2.7576   -4.5380   -1.3882 H       1  noname11    0.0313
     15 H4          2.5104   -2.8691   -0.9380 H       1  noname11    0.0313
     16 H5          3.4431   -3.1421    1.2618 H       1  noname11    0.0575
     17 H6         -0.6229   -2.0620   -1.0051 H       1  noname11    0.0647
     18 H7          0.0667   -6.1050   -2.0571 H       1  noname11    0.0903
     19 H8          6.3183   -4.9574    1.6455 H       1  noname11    0.0276
     20 H9          5.1626   -3.9854    2.5647 H       1  noname11    0.0276
     21 H10         5.1071   -5.7489    2.6789 H       1  noname11    0.0276
     22 H11         4.4031   -7.1244    0.6503 H       1  noname11    0.0276
     23 H12         3.6895   -6.3497   -0.7549 H       1  noname11    0.0276
     24 H13         5.4386   -6.2592   -0.5038 H       1  noname11    0.0276
     25 H14        -2.1715   -2.6487   -3.0257 H       1  noname11    0.0900
@<TRIPOS>BOND
     1     1     8   ar
     2     1    11   ar
     3     2     3    1
     4     2     4    1
     5     2    12    1
     6     2    13    1
     7     3     5    1
     8     3    14    1
     9     3    15    1
    10     4     7   ar
    11     4     8   ar
    12     5     6    2
    13     5    16    1
    14     6     9    1
    15     6    10    1
    16     7    11   ar
    17     7    17    1
    18     8    18    1
    19     9    19    1
    20     9    20    1
    21     9    21    1
    22    10    22    1
    23    10    23    1
    24    10    24    1
    25    11    25    1
