@<TRIPOS>MOLECULE
12304570
 26 26 0 0 0
SMALL
USER_CHARGES

@<TRIPOS>ATOM
      1 C1         -0.4511   -0.2981    2.2885 C.3     1  noname1    -0.0168
      2 C2          0.3169    0.8588    2.9459 C.3     1  noname1    -0.0429
      3 C3         -0.6956    0.0033    0.7932 C.3     1  noname1    -0.0257
      4 C4          1.6666    1.0778    2.2585 C.3     1  noname1    -0.0342
      5 C5          0.5197    0.5612    0.0853 C.2     1  noname1    -0.0797
      6 C6         -1.7378   -0.6464    3.0298 C.2     1  noname1    -0.0849
      7 C7          1.5851    1.0283    0.7606 C.2     1  noname1    -0.0824
      8 C8          0.4620    0.5634   -1.4149 C.3     1  noname1    -0.0439
      9 C9         -2.7622    0.4365    3.2419 C.3     1  noname1    -0.0439
     10 C10        -1.9528   -1.8906    3.4919 C.2     1  noname1    -0.0919
     11 H1          0.2111   -1.1767    2.3307 H       1  noname1     0.0352
     12 H2          0.4808    0.6610    4.0122 H       1  noname1     0.0276
     13 H3         -0.2668    1.7864    2.8805 H       1  noname1     0.0276
     14 H4         -1.5129    0.7233    0.6669 H       1  noname1     0.0318
     15 H5         -1.0095   -0.9253    0.2991 H       1  noname1     0.0318
     16 H6          2.0694    2.0491    2.5677 H       1  noname1     0.0310
     17 H7          2.3802    0.3145    2.5911 H       1  noname1     0.0310
     18 H8          2.4510    1.4045    0.2202 H       1  noname1     0.0575
     19 H9          0.3586   -0.4588   -1.7928 H       1  noname1     0.0276
     20 H10         1.3642    0.9946   -1.8611 H       1  noname1     0.0276
     21 H11        -0.3947    1.1511   -1.7601 H       1  noname1     0.0276
     22 H12        -2.3519    1.2439    3.8558 H       1  noname1     0.0276
     23 H13        -3.0947    0.8547    2.2878 H       1  noname1     0.0276
     24 H14        -3.6528    0.0594    3.7569 H       1  noname1     0.0276
     25 H15        -2.8625   -2.1519    4.0245 H       1  noname1     0.0537
     26 H16        -1.2260   -2.6853    3.3515 H       1  noname1     0.0537
@<TRIPOS>BOND
     1     1     2    1
     2     1     3    1
     3     1     6    1
     4     1    11    1
     5     2     4    1
     6     2    12    1
     7     2    13    1
     8     3     5    1
     9     3    14    1
    10     3    15    1
    11     4     7    1
    12     4    16    1
    13     4    17    1
    14     5     7    2
    15     5     8    1
    16     6     9    1
    17     6    10    2
    18     7    18    1
    19     8    19    1
    20     8    20    1
    21     8    21    1
    22     9    22    1
    23     9    23    1
    24     9    24    1
    25    10    25    1
    26    10    26    1
