REMARK  2 active torsions:
REMARK  status: ('A' for Active; 'I' for Inactive)
REMARK    1  A    between atoms: C1_1  and  C8_8 
REMARK    2  A    between atoms: C1_1  and  C9_9 
ROOT
ATOM      1  C1  non d   1       3.250   0.722  -0.949  0.00  0.00    -0.026 C 
ATOM      2  C2  non d   1       3.486  -0.516  -0.041  0.00  0.00    -0.032 C 
ATOM      3  C3  non d   1       2.141   1.262  -0.013  0.00  0.00    -0.015 C 
ATOM      4  C4  non d   1       3.773   0.117   1.346  0.00  0.00    -0.049 C 
ATOM      5  C5  non d   1       2.835   1.343   1.364  0.00  0.00    -0.046 C 
ATOM      6  C6  non d   1       2.086  -1.176   0.042  0.00  0.00    -0.029 C 
ATOM      7  C7  non d   1       1.213   0.060   0.082  0.00  0.00    -0.082 C 
ATOM      8  C10 non d   1      -0.122   0.085   0.141  0.00  0.00    -0.090 C 
ATOM      9  H1  non d   1       4.268  -1.203  -0.372  0.00  0.00     0.031 H 
ATOM     10  H2  non d   1       1.660   2.189  -0.333  0.00  0.00     0.035 H 
ATOM     11  H3  non d   1       4.820   0.424   1.438  0.00  0.00     0.027 H 
ATOM     12  H4  non d   1       3.559  -0.571   2.171  0.00  0.00     0.027 H 
ATOM     13  H5  non d   1       3.408   2.269   1.473  0.00  0.00     0.027 H 
ATOM     14  H6  non d   1       2.127   1.294   2.199  0.00  0.00     0.027 H 
ATOM     15  H7  non d   1       1.879  -1.786  -0.842  0.00  0.00     0.032 H 
ATOM     16  H8  non d   1       1.974  -1.791   0.940  0.00  0.00     0.032 H 
ATOM     17  H15 non d   1      -0.700  -0.833   0.187  0.00  0.00     0.054 H 
ATOM     18  H16 non d   1      -0.668   1.023   0.146  0.00  0.00     0.054 H 
ENDROOT
BRANCH   1  19
ATOM     19  C8  non d   1       2.776   0.394  -2.380  0.00  0.00    -0.059 C 
ATOM     20  H9  non d   1       2.564   1.317  -2.932  0.00  0.00     0.024 H 
ATOM     21  H10 non d   1       3.555  -0.151  -2.924  0.00  0.00     0.024 H 
ATOM     22  H11 non d   1       1.867  -0.210  -2.431  0.00  0.00     0.024 H 
ENDBRANCH   1  19
BRANCH   1  23
ATOM     23  C9  non d   1       4.472   1.647  -1.097  0.00  0.00    -0.059 C 
ATOM     24  H12 non d   1       4.197   2.560  -1.637  0.00  0.00     0.024 H 
ATOM     25  H13 non d   1       5.263   1.146  -1.665  0.00  0.00     0.024 H 
ATOM     26  H14 non d   1       4.919   1.967  -0.153  0.00  0.00     0.024 H 
ENDBRANCH   1  23
TORSDOF 2
