@<TRIPOS>MOLECULE
261491
 27 28 0 0 0
SMALL
USER_CHARGES

@<TRIPOS>ATOM
      1 O1          1.3390   -0.0102   -0.1542 O.2     1  noname1    -0.2981
      2 C1         -2.1276    0.7961    0.3392 C.3     1  noname1    -0.0167
      3 C2         -2.1609   -0.7036    0.1978 C.3     1  noname1    -0.0250
      4 C3         -2.4997   -0.0756    1.5236 C.3     1  noname1    -0.0425
      5 C4         -0.7704   -1.2337   -0.0677 C.3     1  noname1     0.0182
      6 C5         -0.6879    1.2689    0.2340 C.3     1  noname1     0.0125
      7 C6         -3.2197    1.6413   -0.2930 C.3     1  noname1    -0.0407
      8 C7          0.1219    0.0050   -0.0111 C.2     1  noname1     0.1352
      9 C8         -0.6625   -1.8957   -1.4308 C.3     1  noname1    -0.0553
     10 C9         -3.0813    1.7200   -1.8140 C.3     1  noname1    -0.0622
     11 C10        -3.2602    3.0395    0.3234 C.3     1  noname1    -0.0622
     12 H1         -2.9545   -1.1935   -0.3495 H       1  noname1     0.0316
     13 H2         -1.7981   -0.1725    2.3459 H       1  noname1     0.0276
     14 H3         -3.5359   -0.1056    1.8457 H       1  noname1     0.0276
     15 H4         -0.4741   -1.9223    0.7304 H       1  noname1     0.0382
     16 H5         -0.5287    1.9479   -0.6066 H       1  noname1     0.0352
     17 H6         -0.3634    1.7380    1.1672 H       1  noname1     0.0352
     18 H7         -4.1897    1.1687   -0.0872 H       1  noname1     0.0303
     19 H8         -0.9286   -1.2000   -2.2349 H       1  noname1     0.0238
     20 H9          0.3594   -2.2420   -1.6177 H       1  noname1     0.0238
     21 H10        -1.3340   -2.7578   -1.4995 H       1  noname1     0.0238
     22 H11        -3.0470    0.7191   -2.2570 H       1  noname1     0.0233
     23 H12        -2.1720    2.2486   -2.1165 H       1  noname1     0.0233
     24 H13        -3.9340    2.2510   -2.2507 H       1  noname1     0.0233
     25 H14        -3.3777    2.9813    1.4109 H       1  noname1     0.0233
     26 H15        -2.3410    3.5984    0.1184 H       1  noname1     0.0233
     27 H16        -4.1008    3.6160   -0.0770 H       1  noname1     0.0233
@<TRIPOS>BOND
     1     1     8    2
     2     2     3    1
     3     2     4    1
     4     2     6    1
     5     2     7    1
     6     3     4    1
     7     3     5    1
     8     3    12    1
     9     4    13    1
    10     4    14    1
    11     5     8    1
    12     5     9    1
    13     5    15    1
    14     6     8    1
    15     6    16    1
    16     6    17    1
    17     7    10    1
    18     7    11    1
    19     7    18    1
    20     9    19    1
    21     9    20    1
    22     9    21    1
    23    10    22    1
    24    10    23    1
    25    10    24    1
    26    11    25    1
    27    11    26    1
    28    11    27    1
