REMARK  0 active torsions:
REMARK  status: ('A' for Active; 'I' for Inactive)
ROOT
ATOM      1  N1  non d   1       1.177  -0.053  -0.000  0.00  0.00    -0.189 NA
ATOM      2  C1  non d   1      -1.403   0.017  -0.000  0.00  0.00     0.004 C 
ATOM      3  C2  non d   1      -2.093   1.164  -0.000  0.00  0.00    -0.048 C 
ATOM      4  C3  non d   1       0.018  -0.019   0.000  0.00  0.00     0.051 C 
ATOM      5  H1  non d   1      -1.922  -0.935   0.000  0.00  0.00     0.073 H 
ATOM      6  H2  non d   1      -1.598   2.132   0.000  0.00  0.00     0.054 H 
ATOM      7  H3  non d   1      -3.179   1.158  -0.000  0.00  0.00     0.054 H 
ENDROOT
TORSDOF 0
