REMARK  4 active torsions:
REMARK  status: ('A' for Active; 'I' for Inactive)
REMARK    1  A    between atoms: C1_1  and  C4_4 
REMARK    2  A    between atoms: C1_1  and  C5_5 
REMARK    3  A    between atoms: C7_7  and  C14_14 
REMARK    4  A    between atoms: C12_12  and  C15_15 
ROOT
ATOM      1  C1  non d   1      -3.967   0.282   1.551  0.00  0.00    -0.014 C 
ATOM      2  C2  non d   1      -3.232   1.140   2.651  0.00  0.00    -0.026 C 
ATOM      3  C3  non d   1      -3.048  -0.864   1.127  0.00  0.00    -0.083 C 
ATOM      4  C6  non d   1      -1.781   1.454   2.325  0.00  0.00    -0.082 C 
ATOM      5  C7  non d   1      -0.682   1.031   2.988  0.00  0.00    -0.080 C 
ATOM      6  C8  non d   1       0.737   1.137   2.426  0.00  0.00    -0.029 C 
ATOM      7  C9  non d   1      -2.543  -1.091  -0.101  0.00  0.00    -0.083 C 
ATOM      8  C10 non d   1       0.966   1.094   0.895  0.00  0.00    -0.031 C 
ATOM      9  C11 non d   1      -1.284  -1.904  -0.313  0.00  0.00    -0.014 C 
ATOM     10  C12 non d   1      -0.065  -1.186   0.268  0.00  0.00    -0.077 C 
ATOM     11  C13 non d   1       0.081   0.150   0.124  0.00  0.00    -0.081 C 
ATOM     12  H1  non d   1      -3.764   2.089   2.799  0.00  0.00     0.032 H 
ATOM     13  H2  non d   1      -3.307   0.609   3.605  0.00  0.00     0.032 H 
ATOM     14  H3  non d   1      -2.627  -1.433   1.958  0.00  0.00     0.058 H 
ATOM     15  H10 non d   1      -1.647   1.990   1.388  0.00  0.00     0.058 H 
ATOM     16  H11 non d   1       1.322   0.308   2.846  0.00  0.00     0.032 H 
ATOM     17  H12 non d   1       1.197   2.050   2.826  0.00  0.00     0.032 H 
ATOM     18  H13 non d   1      -2.880  -0.519  -0.961  0.00  0.00     0.058 H 
ATOM     19  H14 non d   1       0.791   2.104   0.501  0.00  0.00     0.031 H 
ATOM     20  H15 non d   1       2.019   0.874   0.681  0.00  0.00     0.031 H 
ATOM     21  H16 non d   1      -1.415  -2.885   0.161  0.00  0.00     0.035 H 
ATOM     22  H17 non d   1      -1.127  -2.089  -1.382  0.00  0.00     0.035 H 
ATOM     23  H18 non d   1      -0.623   0.673  -0.523  0.00  0.00     0.058 H 
ENDROOT
BRANCH   1  24
ATOM     24  C4  non d   1      -4.384   1.205   0.386  0.00  0.00    -0.056 C 
ATOM     25  H4  non d   1      -4.939   0.653  -0.382  0.00  0.00     0.024 H 
ATOM     26  H5  non d   1      -5.036   2.012   0.740  0.00  0.00     0.024 H 
ATOM     27  H6  non d   1      -3.520   1.674  -0.097  0.00  0.00     0.024 H 
ENDBRANCH   1  24
BRANCH   1  28
ATOM     28  C5  non d   1      -5.246  -0.320   2.160  0.00  0.00    -0.056 C 
ATOM     29  H7  non d   1      -5.799  -0.910   1.420  0.00  0.00     0.024 H 
ATOM     30  H8  non d   1      -5.915   0.466   2.529  0.00  0.00     0.024 H 
ATOM     31  H9  non d   1      -5.017  -0.982   3.004  0.00  0.00     0.024 H 
ENDBRANCH   1  28
BRANCH   5  32
ATOM     32  C14 non d   1      -0.729   0.331   4.323  0.00  0.00    -0.044 C 
ATOM     33  H19 non d   1      -1.676   0.462   4.852  0.00  0.00     0.028 H 
ATOM     34  H20 non d   1       0.046   0.734   4.984  0.00  0.00     0.028 H 
ATOM     35  H21 non d   1      -0.549  -0.741   4.195  0.00  0.00     0.028 H 
ENDBRANCH   5  32
BRANCH  10  36
ATOM     36  C15 non d   1       0.842  -2.044   1.102  0.00  0.00    -0.044 C 
ATOM     37  H22 non d   1       1.157  -2.922   0.528  0.00  0.00     0.028 H 
ATOM     38  H23 non d   1       1.752  -1.522   1.408  0.00  0.00     0.028 H 
ATOM     39  H24 non d   1       0.322  -2.386   2.002  0.00  0.00     0.028 H 
ENDBRANCH  10  36
TORSDOF 4
