REMARK  5 active torsions:
REMARK  status: ('A' for Active; 'I' for Inactive)
REMARK    1  A    between atoms: C1_1  and  C6_6 
REMARK    2  A    between atoms: C3_3  and  C8_8 
REMARK    3  A    between atoms: C6_6  and  C10_10 
REMARK    4  A    between atoms: C6_6  and  C11_11 
REMARK    5  A    between atoms: C13_13  and  C15_15 
ROOT
ATOM      1  C1  non d   1      -2.644   1.185  -1.800  0.00  0.00     0.015 C 
ATOM      2  C2  non d   1      -3.854   0.477  -2.446  0.00  0.00    -0.045 C 
ATOM      3  C3  non d   1      -2.929  -1.821  -1.928  0.00  0.00     0.011 C 
ATOM      4  C4  non d   1      -3.521  -0.902  -3.001  0.00  0.00    -0.046 C 
ATOM      5  C5  non d   1      -1.724   0.221  -1.032  0.00  0.00    -0.059 A 
ATOM      6  C7  non d   1      -1.850  -1.135  -1.101  0.00  0.00    -0.066 A 
ATOM      7  C9  non d   1      -0.758   0.744  -0.232  0.00  0.00    -0.069 A 
ATOM      8  C12 non d   1      -0.978  -1.914  -0.416  0.00  0.00    -0.066 A 
ATOM      9  C13 non d   1       0.096  -0.036   0.465  0.00  0.00    -0.067 A 
ATOM     10  C14 non d   1      -0.015  -1.375   0.353  0.00  0.00    -0.074 A 
ATOM     11  H1  non d   1      -3.078   1.855  -1.041  0.00  0.00     0.035 H 
ATOM     12  H2  non d   1      -4.303   1.084  -3.237  0.00  0.00     0.027 H 
ATOM     13  H3  non d   1      -4.639   0.369  -1.686  0.00  0.00     0.027 H 
ATOM     14  H4  non d   1      -2.481  -2.673  -2.460  0.00  0.00     0.035 H 
ATOM     15  H5  non d   1      -2.809  -0.815  -3.828  0.00  0.00     0.027 H 
ATOM     16  H6  non d   1      -4.424  -1.352  -3.431  0.00  0.00     0.027 H 
ATOM     17  H11 non d   1      -0.663   1.824  -0.144  0.00  0.00     0.063 H 
ATOM     18  H18 non d   1      -1.050  -2.998  -0.474  0.00  0.00     0.062 H 
ATOM     19  H19 non d   1       0.663  -2.032   0.890  0.00  0.00     0.062 H 
ENDROOT
BRANCH   1  20
ATOM     20  C6  non d   1      -1.857   2.117  -2.786  0.00  0.00    -0.040 C 
ATOM     21  H7  non d   1      -1.032   2.579  -2.228  0.00  0.00     0.030 H 
BRANCH  20  22
ATOM     22  C10 non d   1      -1.225   1.397  -3.977  0.00  0.00    -0.062 C 
ATOM     23  H12 non d   1      -0.627   0.537  -3.659  0.00  0.00     0.023 H 
ATOM     24  H13 non d   1      -1.980   1.056  -4.691  0.00  0.00     0.023 H 
ATOM     25  H14 non d   1      -0.556   2.076  -4.518  0.00  0.00     0.023 H 
ENDBRANCH  20  22
BRANCH  20  26
ATOM     26  C11 non d   1      -2.715   3.287  -3.285  0.00  0.00    -0.062 C 
ATOM     27  H15 non d   1      -3.189   3.810  -2.448  0.00  0.00     0.023 H 
ATOM     28  H16 non d   1      -3.498   2.963  -3.977  0.00  0.00     0.023 H 
ATOM     29  H17 non d   1      -2.092   4.014  -3.818  0.00  0.00     0.023 H 
ENDBRANCH  20  26
ENDBRANCH   1  20
BRANCH   3  30
ATOM     30  C8  non d   1      -4.034  -2.379  -1.018  0.00  0.00    -0.058 C 
ATOM     31  H8  non d   1      -4.498  -1.595  -0.410  0.00  0.00     0.024 H 
ATOM     32  H9  non d   1      -3.636  -3.136  -0.334  0.00  0.00     0.024 H 
ATOM     33  H10 non d   1      -4.820  -2.858  -1.611  0.00  0.00     0.024 H 
ENDBRANCH   3  30
BRANCH   9  34
ATOM     34  C15 non d   1       1.173   0.576   1.319  0.00  0.00    -0.003 C 
ATOM     35  H20 non d   1       1.517   1.530   0.905  0.00  0.00     0.028 H 
ATOM     36  H21 non d   1       2.051  -0.076   1.385  0.00  0.00     0.028 H 
ATOM     37  H22 non d   1       0.798   0.753   2.333  0.00  0.00     0.028 H 
ENDBRANCH   9  34
TORSDOF 5
