REMARK  4 active torsions:
REMARK  status: ('A' for Active; 'I' for Inactive)
REMARK    1  A    between atoms: C3_3  and  C11_11 
REMARK    2  A    between atoms: C3_3  and  C12_12 
REMARK    3  A    between atoms: C6_6  and  C14_14 
REMARK    4  A    between atoms: C10_10  and  C15_15 
ROOT
ATOM      1  C1  non d   1       0.541   1.084   2.632  0.00  0.00    -0.020 C 
ATOM      2  C2  non d   1      -0.516   2.208   2.348  0.00  0.00    -0.029 C 
ATOM      3  C3  non d   1      -0.030   2.932   1.044  0.00  0.00    -0.025 C 
ATOM      4  C4  non d   1       1.069   1.962   0.495  0.00  0.00    -0.015 C 
ATOM      5  C5  non d   1       1.761   1.525   1.796  0.00  0.00    -0.040 C 
ATOM      6  C6  non d   1       0.806   1.127   4.149  0.00  0.00    -0.038 C 
ATOM      7  C7  non d   1      -0.616   3.019   3.649  0.00  0.00    -0.049 C 
ATOM      8  C8  non d   1       0.075  -0.284   2.069  0.00  0.00    -0.029 C 
ATOM      9  C9  non d   1       0.578   2.603   4.499  0.00  0.00    -0.050 C 
ATOM     10  C10 non d   1       0.508   0.714  -0.183  0.00  0.00    -0.077 C 
ATOM     11  C13 non d   1       0.056  -0.316   0.559  0.00  0.00    -0.081 C 
ATOM     12  H1  non d   1      -1.501   1.758   2.170  0.00  0.00     0.031 H 
ATOM     13  H2  non d   1       1.784   2.463  -0.166  0.00  0.00     0.035 H 
ATOM     14  H3  non d   1       2.313   2.351   2.255  0.00  0.00     0.028 H 
ATOM     15  H4  non d   1       2.483   0.712   1.646  0.00  0.00     0.028 H 
ATOM     16  H5  non d   1       1.842   0.847   4.373  0.00  0.00     0.031 H 
ATOM     17  H6  non d   1      -1.538   2.732   4.171  0.00  0.00     0.027 H 
ATOM     18  H7  non d   1      -0.673   4.101   3.515  0.00  0.00     0.027 H 
ATOM     19  H8  non d   1       0.751  -1.076   2.413  0.00  0.00     0.032 H 
ATOM     20  H9  non d   1      -0.929  -0.529   2.434  0.00  0.00     0.032 H 
ATOM     21  H10 non d   1       0.394   2.765   5.566  0.00  0.00     0.027 H 
ATOM     22  H11 non d   1       1.457   3.198   4.228  0.00  0.00     0.027 H 
ATOM     23  H18 non d   1      -0.330  -1.215   0.088  0.00  0.00     0.058 H 
ENDROOT
BRANCH   3  24
ATOM     24  C11 non d   1      -1.208   3.141   0.076  0.00  0.00    -0.059 C 
ATOM     25  H12 non d   1      -1.745   2.211  -0.136  0.00  0.00     0.024 H 
ATOM     26  H13 non d   1      -0.866   3.557  -0.878  0.00  0.00     0.024 H 
ATOM     27  H14 non d   1      -1.940   3.838   0.501  0.00  0.00     0.024 H 
ENDBRANCH   3  24
BRANCH   3  28
ATOM     28  C12 non d   1       0.596   4.325   1.280  0.00  0.00    -0.059 C 
ATOM     29  H15 non d   1      -0.158   5.056   1.594  0.00  0.00     0.024 H 
ATOM     30  H16 non d   1       1.384   4.316   2.038  0.00  0.00     0.024 H 
ATOM     31  H17 non d   1       1.041   4.709   0.355  0.00  0.00     0.024 H 
ENDBRANCH   3  28
BRANCH  10  32
ATOM     32  C15 non d   1       0.518   0.686  -1.683  0.00  0.00    -0.044 C 
ATOM     33  H22 non d   1       0.098  -0.246  -2.077  0.00  0.00     0.028 H 
ATOM     34  H23 non d   1       1.543   0.774  -2.056  0.00  0.00     0.028 H 
ATOM     35  H24 non d   1      -0.071   1.513  -2.091  0.00  0.00     0.028 H 
ENDBRANCH  10  32
BRANCH   6  36
ATOM     36  C14 non d   1      -0.111   0.226   4.981  0.00  0.00    -0.062 C 
ATOM     37  H19 non d   1       0.052   0.396   6.051  0.00  0.00     0.023 H 
ATOM     38  H20 non d   1      -1.170   0.407   4.771  0.00  0.00     0.023 H 
ATOM     39  H21 non d   1       0.098  -0.830   4.785  0.00  0.00     0.023 H 
ENDBRANCH   6  36
TORSDOF 4
