@<TRIPOS>MOLECULE
567757
 33 34 0 0 0
SMALL
USER_CHARGES

@<TRIPOS>ATOM
      1 O1          1.5990   -0.7141   -0.8453 O.3     1  noname1    -0.3739
      2 C1          2.7224   -4.3219   -0.0223 C.3     1  noname1    -0.0232
      3 C2          2.3658   -2.7816    0.1838 C.3     1  noname1    -0.0050
      4 C3          3.8598   -3.7324   -0.9711 C.3     1  noname1    -0.0146
      5 C4          3.9034   -2.5184    0.0269 C.3     1  noname1    -0.0400
      6 C5          1.5762   -2.1348   -0.9781 C.3     1  noname1     0.0793
      7 C6          3.3559   -3.2689   -2.3152 C.2     1  noname1    -0.0659
      8 C7          3.2406   -5.0454    1.2372 C.3     1  noname1    -0.0590
      9 C8          1.6517   -5.2205   -0.6556 C.3     1  noname1    -0.0590
     10 C9          2.2645   -2.4758   -2.2855 C.2     1  noname1    -0.0615
     11 C10         4.0940   -3.6736   -3.5458 C.3     1  noname1    -0.0435
     12 C11         0.4942   -0.2139   -0.0982 C.3     1  noname1     0.0447
     13 C12         0.6452    1.2891    0.0276 C.3     1  noname1    -0.0415
     14 H1          1.9538   -2.5369    1.1681 H       1  noname1     0.0338
     15 H2          4.7813   -4.3193   -1.0315 H       1  noname1     0.0354
     16 H3          4.1985   -1.5477   -0.3871 H       1  noname1     0.0277
     17 H4          4.5070   -2.6669    0.9280 H       1  noname1     0.0277
     18 H5          0.5455   -2.5084   -1.0097 H       1  noname1     0.0651
     19 H6          2.4208   -5.2183    1.9435 H       1  noname1     0.0236
     20 H7          3.6680   -6.0185    0.9704 H       1  noname1     0.0236
     21 H8          4.0147   -4.4928    1.7746 H       1  noname1     0.0236
     22 H9          2.0771   -6.1946   -0.9224 H       1  noname1     0.0236
     23 H10         1.2075   -4.8090   -1.5643 H       1  noname1     0.0236
     24 H11         0.8305   -5.3934    0.0492 H       1  noname1     0.0236
     25 H12         1.8387   -2.0669   -3.1959 H       1  noname1     0.0602
     26 H13         4.0987   -4.7638   -3.6433 H       1  noname1     0.0276
     27 H14         3.6372   -3.2564   -4.4490 H       1  noname1     0.0276
     28 H15         5.1304   -3.3248   -3.5000 H       1  noname1     0.0276
     29 H16         0.4745   -0.6690    0.8975 H       1  noname1     0.0563
     30 H17        -0.4400   -0.4495   -0.6196 H       1  noname1     0.0563
     31 H18        -0.1859    1.7189    0.5937 H       1  noname1     0.0254
     32 H19         0.6790    1.7575   -0.9616 H       1  noname1     0.0254
     33 H20         1.5842    1.5411    0.5316 H       1  noname1     0.0254
@<TRIPOS>BOND
     1     1     6    1
     2     1    12    1
     3     2     3    1
     4     2     4    1
     5     2     8    1
     6     2     9    1
     7     3     5    1
     8     3     6    1
     9     3    14    1
    10     4     5    1
    11     4     7    1
    12     4    15    1
    13     5    16    1
    14     5    17    1
    15     6    10    1
    16     6    18    1
    17     7    10    2
    18     7    11    1
    19     8    19    1
    20     8    20    1
    21     8    21    1
    22     9    22    1
    23     9    23    1
    24     9    24    1
    25    10    25    1
    26    11    26    1
    27    11    27    1
    28    11    28    1
    29    12    13    1
    30    12    29    1
    31    12    30    1
    32    13    31    1
    33    13    32    1
    34    13    33    1
