@<TRIPOS>MOLECULE
12306048
 39 40 0 0 0
SMALL
USER_CHARGES

@<TRIPOS>ATOM
      1 C1          1.0924    1.3435    2.3258 C.3     1  noname1    -0.0131
      2 C2          2.1558    2.4014    2.7724 C.3     1  noname1    -0.0287
      3 C3         -0.3481    1.9565    2.2036 C.3     1  noname1    -0.0137
      4 C4         -1.3329    0.7915    1.9640 C.3     1  noname1    -0.0424
      5 C5          1.6419    3.1775    4.0223 C.3     1  noname1    -0.0311
      6 C6          3.5927    1.8562    3.1492 C.3     1  noname1    -0.0434
      7 C7         -0.7495    2.8586    3.3496 C.2     1  noname1    -0.0775
      8 C8          1.3677    0.6324    1.0086 C.2     1  noname1    -0.0799
      9 C9         -1.0417    0.0765    0.6420 C.3     1  noname1    -0.0317
     10 C10         0.1746    3.3993    4.1535 C.2     1  noname1    -0.0810
     11 C11         0.4135    0.0500    0.2580 C.2     1  noname1    -0.0785
     12 C12         4.5501    3.0102    3.5104 C.3     1  noname1    -0.0625
     13 C13         4.3042    0.9940    2.1077 C.3     1  noname1    -0.0625
     14 C14        -2.2015    3.2172    3.5137 C.3     1  noname1    -0.0436
     15 C15         0.7307   -0.6435   -1.0370 C.3     1  noname1    -0.0439
     16 H1          1.0850    0.5703    3.1087 H       1  noname1     0.0355
     17 H2          2.2704    3.1200    1.9482 H       1  noname1     0.0314
     18 H3         -0.3762    2.6033    1.3118 H       1  noname1     0.0355
     19 H4         -2.3733    1.1335    1.9336 H       1  noname1     0.0276
     20 H5         -1.2668    0.0747    2.7934 H       1  noname1     0.0276
     21 H6          2.1175    4.1662    4.0369 H       1  noname1     0.0313
     22 H7          1.9573    2.6610    4.9383 H       1  noname1     0.0313
     23 H8          3.4884    1.2293    4.0456 H       1  noname1     0.0300
     24 H9          2.3782    0.5978    0.6285 H       1  noname1     0.0578
     25 H10        -1.4367   -0.9451    0.6924 H       1  noname1     0.0312
     26 H11        -1.5920    0.5917   -0.1561 H       1  noname1     0.0312
     27 H12        -0.1310    4.0608    4.9623 H       1  noname1     0.0575
     28 H13         4.2269    3.5455    4.4076 H       1  noname1     0.0233
     29 H14         4.6256    3.7287    2.6872 H       1  noname1     0.0233
     30 H15         5.5573    2.6352    3.7241 H       1  noname1     0.0233
     31 H16         3.8313    0.0125    2.0168 H       1  noname1     0.0233
     32 H17         4.3380    1.4894    1.1324 H       1  noname1     0.0233
     33 H18         5.3399    0.7920    2.4058 H       1  noname1     0.0233
     34 H19        -2.3474    4.0215    4.2432 H       1  noname1     0.0276
     35 H20        -2.7762    2.3534    3.8619 H       1  noname1     0.0276
     36 H21        -2.6186    3.5632    2.5624 H       1  noname1     0.0276
     37 H22         0.2030   -0.1603   -1.8656 H       1  noname1     0.0276
     38 H23         1.8013   -0.6228   -1.2660 H       1  noname1     0.0276
     39 H24         0.4205   -1.6924   -0.9906 H       1  noname1     0.0276
@<TRIPOS>BOND
     1     1     2    1
     2     1     3    1
     3     1     8    1
     4     1    16    1
     5     2     5    1
     6     2     6    1
     7     2    17    1
     8     3     4    1
     9     3     7    1
    10     3    18    1
    11     4     9    1
    12     4    19    1
    13     4    20    1
    14     5    10    1
    15     5    21    1
    16     5    22    1
    17     6    12    1
    18     6    13    1
    19     6    23    1
    20     7    10    2
    21     7    14    1
    22     8    11    2
    23     8    24    1
    24     9    11    1
    25     9    25    1
    26     9    26    1
    27    10    27    1
    28    11    15    1
    29    12    28    1
    30    12    29    1
    31    12    30    1
    32    13    31    1
    33    13    32    1
    34    13    33    1
    35    14    34    1
    36    14    35    1
    37    14    36    1
    38    15    37    1
    39    15    38    1
    40    15    39    1
