REMARK  5 active torsions:
REMARK  status: ('A' for Active; 'I' for Inactive)
REMARK    1  A    between atoms: C1_1  and  C10_10 
REMARK    2  A    between atoms: C2_2  and  C7_7 
REMARK    3  A    between atoms: C7_7  and  C13_13 
REMARK    4  A    between atoms: C7_7  and  C14_14 
REMARK    5  A    between atoms: C8_8  and  C15_15 
ROOT
ATOM      1  C1  non d   1      -0.240   2.588   0.855  0.00  0.00     0.007 A 
ATOM      2  C2  non d   1       2.040   3.590  -0.901  0.00  0.00    -0.035 C 
ATOM      3  C3  non d   1      -0.251   4.000   0.226  0.00  0.00    -0.040 C 
ATOM      4  C4  non d   1       1.136   4.551  -0.110  0.00  0.00    -0.049 C 
ATOM      5  C5  non d   1       0.590   1.645  -0.034  0.00  0.00    -0.064 A 
ATOM      6  C6  non d   1       1.987   2.156  -0.329  0.00  0.00    -0.028 C 
ATOM      7  C8  non d   1       0.093   0.477  -0.517  0.00  0.00    -0.066 A 
ATOM      8  C9  non d   1      -1.687   2.147   1.000  0.00  0.00    -0.080 A 
ATOM      9  C11 non d   1      -1.335   0.031  -0.269  0.00  0.00    -0.014 A 
ATOM     10  C12 non d   1      -2.170   1.004   0.498  0.00  0.00    -0.082 A 
ATOM     11  H1  non d   1       3.071   3.929  -0.715  0.00  0.00     0.031 H 
ATOM     12  H2  non d   1      -0.868   3.996  -0.680  0.00  0.00     0.028 H 
ATOM     13  H3  non d   1      -0.743   4.709   0.906  0.00  0.00     0.028 H 
ATOM     14  H4  non d   1       1.027   5.507  -0.633  0.00  0.00     0.027 H 
ATOM     15  H5  non d   1       1.643   4.794   0.833  0.00  0.00     0.027 H 
ATOM     16  H6  non d   1       2.544   1.501  -1.003  0.00  0.00     0.032 H 
ATOM     17  H7  non d   1       2.556   2.134   0.609  0.00  0.00     0.032 H 
ATOM     18  H9  non d   1      -2.356   2.800   1.556  0.00  0.00     0.058 H 
ATOM     19  H13 non d   1      -1.822  -0.144  -1.236  0.00  0.00     0.035 H 
ATOM     20  H14 non d   1      -1.327  -0.921   0.275  0.00  0.00     0.035 H 
ATOM     21  H15 non d   1      -3.214   0.748   0.651  0.00  0.00     0.058 H 
ENDROOT
BRANCH   2  22
ATOM     22  C7  non d   1       1.885   3.635  -2.453  0.00  0.00    -0.044 C 
ATOM     23  H8  non d   1       2.517   2.836  -2.865  0.00  0.00     0.030 H 
BRANCH  22  24
ATOM     24  C13 non d   1       0.475   3.412  -2.996  0.00  0.00    -0.062 C 
ATOM     25  H16 non d   1       0.032   2.488  -2.622  0.00  0.00     0.023 H 
ATOM     26  H17 non d   1      -0.189   4.247  -2.754  0.00  0.00     0.023 H 
ATOM     27  H18 non d   1       0.501   3.333  -4.089  0.00  0.00     0.023 H 
ENDBRANCH  22  24
BRANCH  22  28
ATOM     28  C14 non d   1       2.436   4.950  -3.025  0.00  0.00    -0.062 C 
ATOM     29  H19 non d   1       3.465   5.122  -2.692  0.00  0.00     0.023 H 
ATOM     30  H20 non d   1       1.831   5.811  -2.725  0.00  0.00     0.023 H 
ATOM     31  H21 non d   1       2.446   4.917  -4.120  0.00  0.00     0.023 H 
ENDBRANCH  22  28
ENDBRANCH   2  22
BRANCH   1  32
ATOM     32  C10 non d   1       0.346   2.627   2.283  0.00  0.00    -0.052 C 
ATOM     33  H10 non d   1       1.371   3.009   2.309  0.00  0.00     0.024 H 
ATOM     34  H11 non d   1       0.361   1.627   2.734  0.00  0.00     0.024 H 
ATOM     35  H12 non d   1      -0.249   3.274   2.940  0.00  0.00     0.024 H 
ENDBRANCH   1  32
BRANCH   7  36
ATOM     36  C15 non d   1       0.861  -0.512  -1.358  0.00  0.00    -0.043 C 
ATOM     37  H22 non d   1       0.647  -1.535  -1.028  0.00  0.00     0.028 H 
ATOM     38  H23 non d   1       1.944  -0.400  -1.294  0.00  0.00     0.028 H 
ATOM     39  H24 non d   1       0.563  -0.423  -2.408  0.00  0.00     0.028 H 
ENDBRANCH   7  36
TORSDOF 5
