REMARK  10 active torsions:
REMARK  status: ('A' for Active; 'I' for Inactive)
REMARK    1  A    between atoms: O1_1  and  C8_10 
REMARK    2  A    between atoms: O1_1  and  C11_13 
REMARK    3  A    between atoms: C1_3  and  C2_4 
REMARK    4  A    between atoms: C1_3  and  C3_5 
REMARK    5  A    between atoms: C2_4  and  C4_6 
REMARK    6  A    between atoms: C3_5  and  C6_8 
REMARK    7  A    between atoms: C5_7  and  C8_10 
REMARK    8  A    between atoms: C7_9  and  C9_11 
REMARK    9  A    between atoms: C7_9  and  C10_12 
REMARK   10  A    between atoms: C11_13  and  C12_14 
ROOT
ATOM      1  C1  non d   1       1.664  -1.052   0.122  0.00  0.00    -0.029 C 
ATOM      2  H1  non d   1       0.582  -1.236   0.095  0.00  0.00     0.032 H 
ATOM      3  H2  non d   1       1.763   0.040   0.138  0.00  0.00     0.032 H 
ENDROOT
BRANCH   1   4
ATOM      4  C2  non d   1       2.324  -1.620  -1.138  0.00  0.00    -0.031 C 
ATOM      5  H3  non d   1       2.157  -2.703  -1.195  0.00  0.00     0.031 H 
ATOM      6  H4  non d   1       3.411  -1.493  -1.092  0.00  0.00     0.031 H 
BRANCH   4   7
ATOM      7  C4  non d   1       1.753  -0.998  -2.384  0.00  0.00    -0.084 C 
ATOM      8  C7  non d   1       2.295  -0.019  -3.134  0.00  0.00    -0.082 C 
ATOM      9  H5  non d   1       0.797  -1.421  -2.694  0.00  0.00     0.058 H 
BRANCH   8  10
ATOM     10  C9  non d   1       1.601   0.470  -4.379  0.00  0.00    -0.044 C 
ATOM     11  H12 non d   1       1.360   1.534  -4.286  0.00  0.00     0.028 H 
ATOM     12  H13 non d   1       0.667  -0.068  -4.573  0.00  0.00     0.028 H 
ATOM     13  H14 non d   1       2.250   0.335  -5.251  0.00  0.00     0.028 H 
ENDBRANCH   8  10
BRANCH   8  14
ATOM     14  C10 non d   1       3.589   0.686  -2.830  0.00  0.00    -0.044 C 
ATOM     15  H15 non d   1       4.330   0.462  -3.603  0.00  0.00     0.028 H 
ATOM     16  H16 non d   1       4.017   0.409  -1.863  0.00  0.00     0.028 H 
ATOM     17  H17 non d   1       3.430   1.770  -2.807  0.00  0.00     0.028 H 
ENDBRANCH   8  14
ENDBRANCH   4   7
ENDBRANCH   1   4
BRANCH   1  18
ATOM     18  C3  non d   1       2.237  -1.654   1.389  0.00  0.00    -0.069 C 
ATOM     19  C5  non d   1       3.239  -1.105   2.105  0.00  0.00    -0.065 C 
ATOM     20  H6  non d   1       3.564  -1.606   3.016  0.00  0.00     0.060 H 
BRANCH  19  21
ATOM     21  C8  non d   1       4.018   0.139   1.794  0.00  0.00     0.075 C 
ATOM     22  H10 non d   1       5.085  -0.112   1.772  0.00  0.00     0.062 H 
ATOM     23  H11 non d   1       3.741   0.579   0.831  0.00  0.00     0.062 H 
BRANCH  21  24
ATOM     24  O1  non d   1       3.768   1.071   2.849  0.00  0.00    -0.205 OA
BRANCH  24  25
ATOM     25  C11 non d   1       4.402   2.263   2.687  0.00  0.00     0.140 C 
ATOM     26  O2  non d   1       5.139   2.556   1.756  0.00  0.00    -0.255 OA
BRANCH  25  27
ATOM     27  C12 non d   1       4.069   3.179   3.824  0.00  0.00     0.022 C 
ATOM     28  H18 non d   1       4.580   4.136   3.680  0.00  0.00     0.034 H 
ATOM     29  H19 non d   1       4.410   2.740   4.765  0.00  0.00     0.034 H 
ATOM     30  H20 non d   1       2.992   3.360   3.851  0.00  0.00     0.034 H 
ENDBRANCH  25  27
ENDBRANCH  24  25
ENDBRANCH  21  24
ENDBRANCH  19  21
BRANCH  18  31
ATOM     31  C6  non d   1       1.586  -2.936   1.838  0.00  0.00    -0.044 C 
ATOM     32  H7  non d   1       0.520  -2.774   2.029  0.00  0.00     0.028 H 
ATOM     33  H8  non d   1       2.031  -3.327   2.760  0.00  0.00     0.028 H 
ATOM     34  H9  non d   1       1.689  -3.708   1.069  0.00  0.00     0.028 H 
ENDBRANCH  18  31
ENDBRANCH   1  18
TORSDOF 10
