@<TRIPOS>MOLECULE
11463
 26 26 0 0 0
SMALL
USER_CHARGES

@<TRIPOS>ATOM
      1 C1          0.5319   -2.6648   -1.2487 C.3     1  noname11   -0.0277
      2 C2          0.2214   -1.3789   -0.5058 C.2     1  noname11   -0.0707
      3 C3         -0.6556   -3.1112   -2.1091 C.3     1  noname11   -0.0285
      4 C4         -0.9944   -1.5364    0.3976 C.3     1  noname11   -0.0133
      5 C5         -1.9668   -3.0699   -1.3615 C.2     1  noname11   -0.0783
      6 C6         -2.0906   -2.3709   -0.2181 C.2     1  noname11   -0.0798
      7 C7          0.9270   -0.2271   -0.6310 C.2     1  noname11   -0.0735
      8 C8         -3.1034   -3.8402   -1.9640 C.3     1  noname11   -0.0439
      9 C9          0.6613    1.0094    0.1953 C.3     1  noname11   -0.0439
     10 C10         2.0692   -0.0295   -1.5983 C.3     1  noname11   -0.0439
     11 H1          0.7533   -3.4418   -0.5036 H       1  noname11    0.0316
     12 H2          1.4250   -2.6053   -1.8748 H       1  noname11    0.0316
     13 H3         -0.4615   -4.1330   -2.4573 H       1  noname11    0.0315
     14 H4         -0.7347   -2.4739   -2.9986 H       1  noname11    0.0315
     15 H5         -0.6848   -2.0034    1.3397 H       1  noname11    0.0356
     16 H6         -1.4405   -0.5662    0.6367 H       1  noname11    0.0356
     17 H7         -3.0380   -2.3696    0.3158 H       1  noname11    0.0578
     18 H8         -4.0223   -3.7446   -1.3762 H       1  noname11    0.0276
     19 H9         -2.8532   -4.9043   -2.0222 H       1  noname11    0.0276
     20 H10        -3.3142   -3.4760   -2.9747 H       1  noname11    0.0276
     21 H11         1.6076    1.4473    0.5329 H       1  noname11    0.0276
     22 H12         0.0818    0.8117    1.1002 H       1  noname11    0.0276
     23 H13         0.1315    1.7567   -0.4038 H       1  noname11    0.0276
     24 H14         2.0805   -0.7503   -2.4180 H       1  noname11    0.0276
     25 H15         3.0255   -0.0863   -1.0688 H       1  noname11    0.0276
     26 H16         1.9965    0.9578   -2.0688 H       1  noname11    0.0276
@<TRIPOS>BOND
     1     1     2    1
     2     1     3    1
     3     1    11    1
     4     1    12    1
     5     2     4    1
     6     2     7    2
     7     3     5    1
     8     3    13    1
     9     3    14    1
    10     4     6    1
    11     4    15    1
    12     4    16    1
    13     5     6    2
    14     5     8    1
    15     6    17    1
    16     7     9    1
    17     7    10    1
    18     8    18    1
    19     8    19    1
    20     8    20    1
    21     9    21    1
    22     9    22    1
    23     9    23    1
    24    10    24    1
    25    10    25    1
    26    10    26    1
