@<TRIPOS>MOLECULE
1549025
 34 33 0 0 0
SMALL
USER_CHARGES

@<TRIPOS>ATOM
      1 O1          3.7681    1.0715    2.8488 O.3     1  noname1    -0.2050
      2 O2          5.1393    2.5564    1.7562 O.2     1  noname1    -0.2551
      3 C1          1.6642   -1.0522    0.1224 C.3     1  noname1    -0.0287
      4 C2          2.3239   -1.6196   -1.1382 C.3     1  noname1    -0.0311
      5 C3          2.2375   -1.6544    1.3885 C.2     1  noname1    -0.0693
      6 C4          1.7526   -0.9980   -2.3840 C.2     1  noname1    -0.0837
      7 C5          3.2390   -1.1045    2.1052 C.2     1  noname1    -0.0647
      8 C6          1.5859   -2.9364    1.8384 C.3     1  noname1    -0.0438
      9 C7          2.2951   -0.0188   -3.1339 C.2     1  noname1    -0.0821
     10 C8          4.0180    0.1393    1.7941 C.3     1  noname1     0.0748
     11 C9          1.6015    0.4700   -4.3787 C.3     1  noname1    -0.0442
     12 C10         3.5887    0.6862   -2.8296 C.3     1  noname1    -0.0442
     13 C11         4.4019    2.2630    2.6865 C.2     1  noname1     0.1395
     14 C12         4.0692    3.1789    3.8242 C.3     1  noname1     0.0220
     15 H1          0.5817   -1.2360    0.0949 H       1  noname1     0.0315
     16 H2          1.7628    0.0399    0.1384 H       1  noname1     0.0315
     17 H3          2.1571   -2.7028   -1.1950 H       1  noname1     0.0313
     18 H4          3.4107   -1.4928   -1.0916 H       1  noname1     0.0313
     19 H5          0.7970   -1.4212   -2.6940 H       1  noname1     0.0575
     20 H6          3.5643   -1.6061    3.0158 H       1  noname1     0.0599
     21 H7          0.5201   -2.7740    2.0291 H       1  noname1     0.0276
     22 H8          2.0313   -3.3270    2.7595 H       1  noname1     0.0276
     23 H9          1.6889   -3.7078    1.0687 H       1  noname1     0.0276
     24 H10         5.0851   -0.1119    1.7724 H       1  noname1     0.0618
     25 H11         3.7411    0.5785    0.8313 H       1  noname1     0.0618
     26 H12         1.3597    1.5338   -4.2857 H       1  noname1     0.0276
     27 H13         0.6674   -0.0676   -4.5727 H       1  noname1     0.0276
     28 H14         2.2497    0.3347   -5.2507 H       1  noname1     0.0276
     29 H15         4.3302    0.4624   -3.6034 H       1  noname1     0.0276
     30 H16         4.0168    0.4095   -1.8634 H       1  noname1     0.0276
     31 H17         3.4298    1.7697   -2.8074 H       1  noname1     0.0276
     32 H18         4.5796    4.1356    3.6805 H       1  noname1     0.0336
     33 H19         4.4100    2.7400    4.7652 H       1  noname1     0.0336
     34 H20         2.9918    3.3601    3.8514 H       1  noname1     0.0336
@<TRIPOS>BOND
     1     1    10    1
     2     1    13    1
     3     2    13    2
     4     3     4    1
     5     3     5    1
     6     3    15    1
     7     3    16    1
     8     4     6    1
     9     4    17    1
    10     4    18    1
    11     5     7    2
    12     5     8    1
    13     6     9    2
    14     6    19    1
    15     7    10    1
    16     7    20    1
    17     8    21    1
    18     8    22    1
    19     8    23    1
    20     9    11    1
    21     9    12    1
    22    10    24    1
    23    10    25    1
    24    11    26    1
    25    11    27    1
    26    11    28    1
    27    12    29    1
    28    12    30    1
    29    12    31    1
    30    13    14    1
    31    14    32    1
    32    14    33    1
    33    14    34    1
