@<TRIPOS>MOLECULE
94254
39 39 1
SMALL
USER_CHARGES
@<TRIPOS>ATOM
1	C1    -2.4264    -0.8667    -2.8475	C.3	1	noname	-0.0077
2	C2    -2.3699    -0.1497    -1.4408	C.3	1	noname	-0.0082
3	C3    -0.9674    -1.0635    -3.3581	C.3	1	noname	-0.0400
4	C4    -1.4172    -0.8739    -0.4573	C.3	1	noname	-0.0244
5	C5    -0.0233    -1.7360    -2.3530	C.3	1	noname	-0.0309
6	C6    -0.0148    -0.9872    -1.0347	C.2	1	noname	-0.0730
7	C7    -3.1352     0.0581    -3.8679	C.3	1	noname	-0.0555
8	C8    -3.7299     0.1549    -0.7990	C.2	1	noname	-0.0843
9	C9    -3.0911    -2.2483    -2.7746	C.2	1	noname	-0.0911
10	C10     1.0978    -0.4767    -0.4509	C.2	1	noname	-0.0749
11	C11    -4.1896     1.5875    -0.8828	C.3	1	noname	-0.0439
12	C12    -4.4739    -0.7583    -0.1508	C.2	1	noname	-0.0916
13	C13    -4.1429    -2.6969    -3.4749	C.2	1	noname	-0.0965
14	C14     2.4988    -0.6778    -0.9798	C.3	1	noname	-0.0439
15	C15     1.0850     0.3609     0.8066	C.3	1	noname	-0.0439
16	H1    -1.8977     0.8310    -1.6161	H	1	noname	0.0360
17	H2    -0.5413    -0.0845    -3.6203	H	1	noname	0.0279
18	H3    -0.9689    -1.6504    -4.2867	H	1	noname	0.0279
19	H4    -1.4299    -0.3561     0.5057	H	1	noname	0.0319
20	H5    -1.7737    -1.8875    -0.2353	H	1	noname	0.0319
21	H6     0.9633    -1.7828    -2.8201	H	1	noname	0.0313
22	H7    -0.3225    -2.7753    -2.1748	H	1	noname	0.0313
23	H8    -4.1951     0.1982    -3.6302	H	1	noname	0.0239
24	H9    -3.0743    -0.3477    -4.8849	H	1	noname	0.0239
25	H10    -2.6692     1.0502    -3.8905	H	1	noname	0.0239
26	H11    -2.6533    -2.9517    -2.0675	H	1	noname	0.0575
27	H12    -5.1636     1.7372    -0.4047	H	1	noname	0.0276
28	H13    -4.2821     1.9071    -1.9245	H	1	noname	0.0276
29	H14    -3.4708     2.2439    -0.3810	H	1	noname	0.0276
30	H15    -4.1656    -1.7947    -0.0619	H	1	noname	0.0537
31	H16    -5.4248    -0.4976     0.3043	H	1	noname	0.0537
32	H17    -4.5143    -3.7061    -3.3213	H	1	noname	0.0534
33	H18    -4.6660    -2.0920    -4.2068	H	1	noname	0.0534
34	H19     2.6007    -1.5502    -1.6284	H	1	noname	0.0276
35	H20     3.1953    -0.8427    -0.1495	H	1	noname	0.0276
36	H21     2.8256     0.2110    -1.5287	H	1	noname	0.0276
37	H22     1.3431    -0.2558     1.6732	H	1	noname	0.0276
38	H23     0.1286     0.8530     0.9946	H	1	noname	0.0276
39	H24     1.8225     1.1683     0.7298	H	1	noname	0.0276
@<TRIPOS>BOND
1	1	2	1
2	1	3	1
3	1	7	1
4	1	9	1
5	2	4	1
6	2	8	1
7	2	16	1
8	3	5	1
9	3	17	1
10	3	18	1
11	4	6	1
12	4	19	1
13	4	20	1
14	5	6	1
15	5	21	1
16	5	22	1
17	6	10	2
18	7	23	1
19	7	24	1
20	7	25	1
21	8	11	1
22	8	12	2
23	9	13	2
24	9	26	1
25	10	14	1
26	10	15	1
27	11	27	1
28	11	28	1
29	11	29	1
30	12	30	1
31	12	31	1
32	13	32	1
33	13	33	1
34	14	34	1
35	14	35	1
36	14	36	1
37	15	37	1
38	15	38	1
39	15	39	1
@<TRIPOS>SUBSTRUCTURE
1	noname	1
