REMARK  8 active torsions:
REMARK  status: ('A' for Active; 'I' for Inactive)
REMARK    1  A    between atoms: C1_2  and  C2_3 
REMARK    2  A    between atoms: C1_2  and  C3_4 
REMARK    3  A    between atoms: C2_3  and  C4_5 
REMARK    4  A    between atoms: C3_4  and  C5_6 
REMARK    5  A    between atoms: C4_5  and  C6_7 
REMARK    6  A    between atoms: C5_6  and  C7_8 
REMARK    7  A    between atoms: C6_7  and  C8_9 
REMARK    8  A    between atoms: C7_8  and  C9_10 
ROOT
ATOM      1  C1  non d   1      -2.325   4.133  -1.091  0.00  0.00    -0.053 C 
ATOM      2  H1  non d   1      -1.597   4.683  -0.483  0.00  0.00     0.027 H 
ATOM      3  H2  non d   1      -3.138   3.825  -0.421  0.00  0.00     0.027 H 
ENDROOT
BRANCH   1   4
ATOM      4  C2  non d   1      -2.880   5.051  -2.182  0.00  0.00    -0.053 C 
ATOM      5  H3  non d   1      -2.067   5.358  -2.851  0.00  0.00     0.027 H 
ATOM      6  H4  non d   1      -3.609   4.501  -2.789  0.00  0.00     0.027 H 
BRANCH   4   7
ATOM      7  C4  non d   1      -3.544   6.291  -1.581  0.00  0.00    -0.053 C 
ATOM      8  H7  non d   1      -2.815   6.841  -0.973  0.00  0.00     0.027 H 
ATOM      9  H8  non d   1      -4.357   5.984  -0.911  0.00  0.00     0.027 H 
BRANCH   7  10
ATOM     10  C6  non d   1      -4.098   7.208  -2.671  0.00  0.00    -0.056 C 
ATOM     11  H11 non d   1      -3.289   7.521  -3.341  0.00  0.00     0.026 H 
ATOM     12  H12 non d   1      -4.831   6.665  -3.278  0.00  0.00     0.026 H 
BRANCH  10  13
ATOM     13  C8  non d   1      -4.759   8.442  -2.078  0.00  0.00    -0.065 C 
ATOM     14  H15 non d   1      -4.044   9.026  -1.489  0.00  0.00     0.023 H 
ATOM     15  H16 non d   1      -5.595   8.165  -1.427  0.00  0.00     0.023 H 
ATOM     16  H17 non d   1      -5.147   9.084  -2.874  0.00  0.00     0.023 H 
ENDBRANCH  10  13
ENDBRANCH   7  10
ENDBRANCH   4   7
ENDBRANCH   1   4
BRANCH   1  17
ATOM     17  C3  non d   1      -1.660   2.894  -1.692  0.00  0.00    -0.053 C 
ATOM     18  H5  non d   1      -0.848   3.201  -2.361  0.00  0.00     0.027 H 
ATOM     19  H6  non d   1      -2.389   2.344  -2.300  0.00  0.00     0.027 H 
BRANCH  17  20
ATOM     20  C5  non d   1      -1.107   1.976  -0.602  0.00  0.00    -0.047 C 
ATOM     21  H9  non d   1      -1.916   1.670   0.072  0.00  0.00     0.027 H 
ATOM     22  H10 non d   1      -0.380   2.523   0.011  0.00  0.00     0.027 H 
BRANCH  20  23
ATOM     23  C7  non d   1      -0.443   0.741  -1.201  0.00  0.00     0.003 C 
ATOM     24  H13 non d   1      -1.164   0.153  -1.777  0.00  0.00     0.034 H 
ATOM     25  H14 non d   1       0.380   1.026  -1.865  0.00  0.00     0.034 H 
BRANCH  23  26
ATOM     26  C9  non d   1       0.100  -0.139  -0.106  0.00  0.00     0.123 C 
ATOM     27  O1  non d   1       1.261  -0.533  -0.072  0.00  0.00    -0.307 OA
ATOM     28  H18 non d   1      -0.627  -0.457   0.661  0.00  0.00     0.104 H 
ENDBRANCH  23  26
ENDBRANCH  20  23
ENDBRANCH  17  20
ENDBRANCH   1  17
TORSDOF 8
