@<TRIPOS>MOLECULE
530421
 39 41 0 0 0
SMALL
USER_CHARGES

@<TRIPOS>ATOM
      1 C1          1.9197    0.4234    2.3922 C.3     1  noname1    -0.0229
      2 C2          3.0630    1.3596    2.8351 C.3     1  noname1    -0.0280
      3 C3          2.8623    0.0104    3.5043 C.3     1  noname1    -0.0283
      4 C4          1.8054   -0.5049    1.1714 C.3     1  noname1    -0.0054
      5 C5          3.8356   -1.1144    3.2950 C.3     1  noname1    -0.0311
      6 C6          1.3654    0.3066   -0.1055 C.3     1  noname1    -0.0348
      7 C7          3.0234   -1.4062    0.9284 C.2     1  noname1    -0.0735
      8 C8          4.3180    1.6028    2.0331 C.3     1  noname1    -0.0593
      9 C9          2.6625    2.5765    3.6432 C.3     1  noname1    -0.0593
     10 C10         3.9143   -1.6744    1.9040 C.2     1  noname1    -0.0785
     11 C11         0.6416   -1.4947    1.5153 C.3     1  noname1    -0.0553
     12 C12         1.4007   -0.5573   -1.3833 C.3     1  noname1    -0.0495
     13 C13         3.1306   -2.1053   -0.4069 C.3     1  noname1    -0.0314
     14 C14         2.7590   -1.2200   -1.5890 C.3     1  noname1    -0.0492
     15 C15         2.1435    1.6020   -0.3667 C.3     1  noname1    -0.0617
     16 H1          0.9272    0.7662    2.6827 H       1  noname1     0.0320
     17 H2          2.4767    0.0043    4.5185 H       1  noname1     0.0315
     18 H3          4.8335   -0.7774    3.5993 H       1  noname1     0.0313
     19 H4          3.5700   -1.9375    3.9698 H       1  noname1     0.0313
     20 H5          0.3221    0.6228    0.0388 H       1  noname1     0.0309
     21 H6          4.2508    2.5567    1.4988 H       1  noname1     0.0236
     22 H7          5.1812    1.6664    2.7050 H       1  noname1     0.0236
     23 H8          4.5332    0.8340    1.2916 H       1  noname1     0.0236
     24 H9          3.4811    2.8818    4.3033 H       1  noname1     0.0236
     25 H10         1.7830    2.3852    4.2676 H       1  noname1     0.0236
     26 H11         2.4240    3.4119    2.9768 H       1  noname1     0.0236
     27 H12         4.7379   -2.3588    1.7165 H       1  noname1     0.0575
     28 H13         0.4701   -2.2389    0.7311 H       1  noname1     0.0239
     29 H14         0.8472   -2.0413    2.4444 H       1  noname1     0.0239
     30 H15        -0.3021   -0.9569    1.6677 H       1  noname1     0.0239
     31 H16         1.1585    0.0539   -2.2614 H       1  noname1     0.0270
     32 H17         0.6231   -1.3287   -1.3343 H       1  noname1     0.0270
     33 H18         4.1443   -2.4933   -0.5655 H       1  noname1     0.0312
     34 H19         2.4646   -2.9774   -0.3950 H       1  noname1     0.0312
     35 H20         3.5350   -0.4625   -1.7473 H       1  noname1     0.0270
     36 H21         2.7302   -1.8286   -2.5006 H       1  noname1     0.0270
     37 H22         1.7830    2.0880   -1.2809 H       1  noname1     0.0233
     38 H23         3.2131    1.4242   -0.4957 H       1  noname1     0.0233
     39 H24         1.9947    2.3239    0.4406 H       1  noname1     0.0233
@<TRIPOS>BOND
     1     1     2    1
     2     1     3    1
     3     1     4    1
     4     1    16    1
     5     2     3    1
     6     2     8    1
     7     2     9    1
     8     3     5    1
     9     3    17    1
    10     4     6    1
    11     4     7    1
    12     4    11    1
    13     5    10    1
    14     5    18    1
    15     5    19    1
    16     6    12    1
    17     6    15    1
    18     6    20    1
    19     7    10    2
    20     7    13    1
    21     8    21    1
    22     8    22    1
    23     8    23    1
    24     9    24    1
    25     9    25    1
    26     9    26    1
    27    10    27    1
    28    11    28    1
    29    11    29    1
    30    11    30    1
    31    12    14    1
    32    12    31    1
    33    12    32    1
    34    13    14    1
    35    13    33    1
    36    13    34    1
    37    14    35    1
    38    14    36    1
    39    15    37    1
    40    15    38    1
    41    15    39    1
