REMARK  9 active torsions:
REMARK  status: ('A' for Active; 'I' for Inactive)
REMARK    1  A    between atoms: O1_1  and  C14_15 
REMARK    2  A    between atoms: C1_2  and  C2_3 
REMARK    3  A    between atoms: C1_2  and  C3_4 
REMARK    4  A    between atoms: C1_2  and  C7_8 
REMARK    5  A    between atoms: C3_4  and  C5_6 
REMARK    6  A    between atoms: C5_6  and  C11_12 
REMARK    7  A    between atoms: C9_10  and  C12_13 
REMARK    8  A    between atoms: C13_14  and  C14_15 
REMARK    9  A    between atoms: C13_14  and  C15_16 
ROOT
ATOM      1  C1  non d   1       0.606   3.984  -3.974  0.00  0.00    -0.022 C 
ATOM      2  H1  non d   1       1.236   3.682  -4.822  0.00  0.00     0.035 H 
ENDROOT
BRANCH   1   3
ATOM      3  C2  non d   1       1.516   4.562  -2.896  0.00  0.00    -0.072 A 
ATOM      4  C4  non d   1       2.860   5.061  -3.389  0.00  0.00    -0.013 A 
ATOM      5  C10 non d   1       3.746   5.625  -2.314  0.00  0.00    -0.078 A 
ATOM      6  H4  non d   1       3.394   4.232  -3.869  0.00  0.00     0.036 H 
ATOM      7  H5  non d   1       2.700   5.838  -4.146  0.00  0.00     0.036 H 
ATOM      8  C9  non d   1       3.400   5.696  -1.016  0.00  0.00    -0.076 A 
ATOM      9  H14 non d   1       4.718   5.988  -2.640  0.00  0.00     0.058 H 
ATOM     10  C8  non d   1       2.063   5.207  -0.519  0.00  0.00    -0.014 A 
ATOM     11  C6  non d   1       1.176   4.643  -1.594  0.00  0.00    -0.076 A 
ATOM     12  H12 non d   1       2.223   4.429   0.238  0.00  0.00     0.035 H 
ATOM     13  H13 non d   1       1.534   6.037  -0.036  0.00  0.00     0.035 H 
ATOM     14  H8  non d   1       0.203   4.299  -1.256  0.00  0.00     0.058 H 
BRANCH   8  15
ATOM     15  C12 non d   1       4.318   6.266   0.026  0.00  0.00    -0.044 C 
ATOM     16  H16 non d   1       3.849   7.125   0.515  0.00  0.00     0.028 H 
ATOM     17  H17 non d   1       5.268   6.602  -0.402  0.00  0.00     0.028 H 
ATOM     18  H18 non d   1       4.543   5.512   0.787  0.00  0.00     0.028 H 
ENDBRANCH   8  15
ENDBRANCH   1   3
BRANCH   1  19
ATOM     19  C3  non d   1      -0.198   2.730  -3.562  0.00  0.00    -0.043 C 
ATOM     20  H2  non d   1      -0.832   2.428  -4.408  0.00  0.00     0.028 H 
ATOM     21  H3  non d   1      -0.886   2.964  -2.740  0.00  0.00     0.028 H 
BRANCH  19  22
ATOM     22  C5  non d   1       0.700   1.549  -3.177  0.00  0.00    -0.034 C 
ATOM     23  H6  non d   1       1.371   1.813  -2.355  0.00  0.00     0.031 H 
ATOM     24  H7  non d   1       1.352   1.292  -4.021  0.00  0.00     0.031 H 
BRANCH  22  25
ATOM     25  C11 non d   1      -0.119   0.334  -2.834  0.00  0.00    -0.072 C 
ATOM     26  C13 non d   1      -0.405  -0.135  -1.602  0.00  0.00    -0.063 C 
ATOM     27  H15 non d   1      -0.490  -0.214  -3.700  0.00  0.00     0.058 H 
BRANCH  26  28
ATOM     28  C14 non d   1       0.004   0.524  -0.313  0.00  0.00     0.064 C 
ATOM     29  H19 non d   1       0.399   1.534  -0.446  0.00  0.00     0.061 H 
ATOM     30  H20 non d   1      -0.852   0.606   0.365  0.00  0.00     0.061 H 
BRANCH  28  31
ATOM     31  O1  non d   1       1.001  -0.268   0.314  0.00  0.00    -0.392 OA
ATOM     32  H24 non d   1       1.683  -0.430  -0.360  0.00  0.00     0.210 HD
ENDBRANCH  28  31
ENDBRANCH  26  28
BRANCH  26  33
ATOM     33  C15 non d   1      -1.217  -1.394  -1.431  0.00  0.00    -0.042 C 
ATOM     34  H21 non d   1      -0.641  -2.150  -0.888  0.00  0.00     0.028 H 
ATOM     35  H22 non d   1      -1.513  -1.830  -2.391  0.00  0.00     0.028 H 
ATOM     36  H23 non d   1      -2.132  -1.182  -0.869  0.00  0.00     0.028 H 
ENDBRANCH  26  33
ENDBRANCH  22  25
ENDBRANCH  19  22
ENDBRANCH   1  19
BRANCH   1  37
ATOM     37  C7  non d   1      -0.347   5.072  -4.482  0.00  0.00    -0.059 C 
ATOM     38  H9  non d   1      -0.946   4.701  -5.321  0.00  0.00     0.024 H 
ATOM     39  H10 non d   1       0.204   5.951  -4.833  0.00  0.00     0.024 H 
ATOM     40  H11 non d   1      -1.038   5.398  -3.696  0.00  0.00     0.024 H 
ENDBRANCH   1  37
TORSDOF 9
