@<TRIPOS>MOLECULE
442359
 39 41 0 0 0
SMALL
USER_CHARGES

@<TRIPOS>ATOM
      1 C1         -1.1717    1.5079    1.4950 C.3     1  noname1    -0.0132
      2 C2         -2.1175    1.1898    0.3403 C.3     1  noname1    -0.0244
      3 C3         -0.7650    0.5314    0.3860 C.3     1  noname1    -0.0104
      4 C4         -1.4796    1.0270    2.9023 C.3     1  noname1    -0.0374
      5 C5         -3.3845    0.3773    0.5545 C.3     1  noname1    -0.0351
      6 C6         -0.2250    2.7069    1.3793 C.3     1  noname1    -0.0279
      7 C7          0.3796    1.1774   -0.2877 C.2     1  noname1    -0.0772
      8 C8         -2.8899    0.4342    3.0418 C.3     1  noname1    -0.0498
      9 C9         -3.2785   -0.4442    1.8570 C.3     1  noname1    -0.0496
     10 C10         0.7024    2.3733    0.2373 C.2     1  noname1    -0.0807
     11 C11        -4.6413    1.3097    0.4888 C.3     1  noname1    -0.0439
     12 C12        -0.4111    0.0595    3.4217 C.3     1  noname1    -0.0619
     13 C13         1.0534    0.5131   -1.4370 C.3     1  noname1    -0.0436
     14 C14        -4.9221    1.7652   -0.9537 C.3     1  noname1    -0.0625
     15 C15        -5.9206    0.6613    1.0316 C.3     1  noname1    -0.0625
     16 H1         -2.2411    1.9428   -0.4301 H       1  noname1     0.0318
     17 H2         -0.6789   -0.5259    0.5910 H       1  noname1     0.0357
     18 H3         -1.4512    1.9026    3.5654 H       1  noname1     0.0306
     19 H4         -3.4627   -0.3422   -0.2718 H       1  noname1     0.0308
     20 H5         -0.7891    3.6212    1.1692 H       1  noname1     0.0316
     21 H6          0.3578    2.8505    2.2949 H       1  noname1     0.0316
     22 H7         -3.6127    1.2536    3.1371 H       1  noname1     0.0269
     23 H8         -2.9657   -0.1441    3.9705 H       1  noname1     0.0269
     24 H9         -4.2136   -0.9711    2.0702 H       1  noname1     0.0270
     25 H10        -2.5322   -1.2384    1.7342 H       1  noname1     0.0270
     26 H11         1.4987    3.0192   -0.1008 H       1  noname1     0.0575
     27 H12        -4.4473    2.2115    1.0844 H       1  noname1     0.0300
     28 H13        -0.5775   -0.1656    4.4806 H       1  noname1     0.0233
     29 H14         0.5901    0.4928    3.3263 H       1  noname1     0.0233
     30 H15        -0.4156   -0.8894    2.8768 H       1  noname1     0.0233
     31 H16         1.4731   -0.4495   -1.1283 H       1  noname1     0.0276
     32 H17         1.8692    1.1250   -1.8354 H       1  noname1     0.0276
     33 H18         0.3384    0.3355   -2.2465 H       1  noname1     0.0276
     34 H19        -4.0956    2.3451   -1.3721 H       1  noname1     0.0233
     35 H20        -5.1009    0.9066   -1.6101 H       1  noname1     0.0233
     36 H21        -5.8096    2.4068   -0.9918 H       1  noname1     0.0233
     37 H22        -5.8612    0.5002    2.1121 H       1  noname1     0.0233
     38 H23        -6.1154   -0.2999    0.5444 H       1  noname1     0.0233
     39 H24        -6.7894    1.3069    0.8608 H       1  noname1     0.0233
@<TRIPOS>BOND
     1     1     2    1
     2     1     3    1
     3     1     4    1
     4     1     6    1
     5     2     3    1
     6     2     5    1
     7     2    16    1
     8     3     7    1
     9     3    17    1
    10     4     8    1
    11     4    12    1
    12     4    18    1
    13     5     9    1
    14     5    11    1
    15     5    19    1
    16     6    10    1
    17     6    20    1
    18     6    21    1
    19     7    10    2
    20     7    13    1
    21     8     9    1
    22     8    22    1
    23     8    23    1
    24     9    24    1
    25     9    25    1
    26    10    26    1
    27    11    14    1
    28    11    15    1
    29    11    27    1
    30    12    28    1
    31    12    29    1
    32    12    30    1
    33    13    31    1
    34    13    32    1
    35    13    33    1
    36    14    34    1
    37    14    35    1
    38    14    36    1
    39    15    37    1
    40    15    38    1
    41    15    39    1
