@<TRIPOS>MOLECULE
11401461
 39 41 0 0 0
SMALL
USER_CHARGES

@<TRIPOS>ATOM
      1 C1         -2.1712    1.1110    0.3659 C.3     1  noname1    -0.0118
      2 C2         -0.9320    0.2102    0.2953 C.3     1  noname1    -0.0132
      3 C3         -1.9532    2.6337    0.0400 C.3     1  noname1    -0.0223
      4 C4         -1.5155    0.5756    1.6326 C.3     1  noname1    -0.0388
      5 C5         -3.5455    0.4952   -0.0899 C.3     1  noname1    -0.0286
      6 C6         -2.3224    2.8988   -1.4410 C.3     1  noname1    -0.0469
      7 C7         -3.8478    0.9110   -1.5507 C.3     1  noname1    -0.0475
      8 C8         -0.4656    3.0886    0.2494 C.3     1  noname1    -0.0288
      9 C9          0.3521    0.7882   -0.1374 C.2     1  noname1    -0.0774
     10 C10        -3.7120    2.4023   -1.8210 C.3     1  noname1    -0.0522
     11 C11        -2.7785    3.5525    0.9691 C.3     1  noname1    -0.0588
     12 C12        -4.6909    0.9177    0.8549 C.3     1  noname1    -0.0593
     13 C13        -3.5651   -1.0591   -0.0837 C.3     1  noname1    -0.0593
     14 C14         0.5816    2.1100   -0.1761 C.2     1  noname1    -0.0808
     15 C15         1.4262   -0.1893   -0.5327 C.3     1  noname1    -0.0436
     16 H1         -1.0360   -0.8304    0.0137 H       1  noname1     0.0355
     17 H2         -0.9657    1.2518    2.2780 H       1  noname1     0.0279
     18 H3         -2.0134   -0.2026    2.1997 H       1  noname1     0.0279
     19 H4         -1.5937    2.4060   -2.0983 H       1  noname1     0.0272
     20 H5         -2.2590    3.9723   -1.6600 H       1  noname1     0.0272
     21 H6         -3.1564    0.3870   -2.2252 H       1  noname1     0.0272
     22 H7         -4.8576    0.5880   -1.8346 H       1  noname1     0.0272
     23 H8         -0.2787    3.3162    1.3078 H       1  noname1     0.0315
     24 H9         -0.2971    4.0312   -0.2884 H       1  noname1     0.0315
     25 H10        -4.4894    2.9643   -1.2950 H       1  noname1     0.0267
     26 H11        -3.8758    2.5872   -2.8896 H       1  noname1     0.0267
     27 H12        -2.4324    4.5912    0.8987 H       1  noname1     0.0236
     28 H13        -3.8386    3.5835    0.7232 H       1  noname1     0.0236
     29 H14        -2.6872    3.2433    2.0160 H       1  noname1     0.0236
     30 H15        -5.5970    0.3290    0.6670 H       1  noname1     0.0236
     31 H16        -4.4145    0.7703    1.9045 H       1  noname1     0.0236
     32 H17        -4.9903    1.9569    0.7315 H       1  noname1     0.0236
     33 H18        -4.5539   -1.4404   -0.3678 H       1  noname1     0.0236
     34 H19        -3.3345   -1.4709    0.9037 H       1  noname1     0.0236
     35 H20        -2.8583   -1.4824   -0.8051 H       1  noname1     0.0236
     36 H21         1.5483    2.5042   -0.4745 H       1  noname1     0.0575
     37 H22         1.6494   -0.8638    0.3006 H       1  noname1     0.0276
     38 H23         2.3585    0.3103   -0.8163 H       1  noname1     0.0276
     39 H24         1.0961   -0.7898   -1.3869 H       1  noname1     0.0276
@<TRIPOS>BOND
     1     1     2    1
     2     1     3    1
     3     1     4    1
     4     1     5    1
     5     2     4    1
     6     2     9    1
     7     2    16    1
     8     3     6    1
     9     3     8    1
    10     3    11    1
    11     4    17    1
    12     4    18    1
    13     5     7    1
    14     5    12    1
    15     5    13    1
    16     6    10    1
    17     6    19    1
    18     6    20    1
    19     7    10    1
    20     7    21    1
    21     7    22    1
    22     8    14    1
    23     8    23    1
    24     8    24    1
    25     9    14    2
    26     9    15    1
    27    10    25    1
    28    10    26    1
    29    11    27    1
    30    11    28    1
    31    11    29    1
    32    12    30    1
    33    12    31    1
    34    12    32    1
    35    13    33    1
    36    13    34    1
    37    13    35    1
    38    14    36    1
    39    15    37    1
    40    15    38    1
    41    15    39    1
