@<TRIPOS>MOLECULE
11127403
 39 39 0 0 0
SMALL
USER_CHARGES

@<TRIPOS>ATOM
      1 C1          0.5540   -3.3413   -4.2133 C.3     1  noname1    -0.0373
      2 C2          0.4367   -3.0379   -5.7487 C.3     1  noname1    -0.0169
      3 C3          0.0830   -2.1482   -3.3376 C.3     1  noname1    -0.0466
      4 C4          1.1479   -4.1100   -6.6274 C.3     1  noname1    -0.0279
      5 C5         -0.2415   -4.6072   -3.8468 C.3     1  noname1    -0.0619
      6 C6          0.9532   -1.6554   -6.1043 C.2     1  noname1    -0.0741
      7 C7          0.2017   -2.3906   -1.8282 C.3     1  noname1    -0.0345
      8 C8          2.5926   -3.8058   -6.9266 C.2     1  noname1    -0.0724
      9 C9          3.0688   -2.5492   -6.9114 C.2     1  noname1    -0.0662
     10 C10         2.1683   -1.4486   -6.6337 C.2     1  noname1    -0.0674
     11 C11        -0.1180   -1.1416   -1.0514 C.2     1  noname1    -0.0839
     12 C12         4.4952   -2.2082   -7.2193 C.3     1  noname1    -0.0401
     13 C13         0.7490   -0.3016   -0.4528 C.2     1  noname1    -0.0822
     14 C14         0.2525    0.8929    0.3190 C.3     1  noname1    -0.0442
     15 C15         2.2465   -0.4343   -0.4919 C.3     1  noname1    -0.0442
     16 H1          1.6108   -3.5294   -3.9795 H       1  noname1     0.0306
     17 H2         -0.6299   -3.0625   -6.0119 H       1  noname1     0.0352
     18 H3          0.6873   -1.2647   -3.5765 H       1  noname1     0.0272
     19 H4         -0.9566   -1.8988   -3.5879 H       1  noname1     0.0272
     20 H5          1.0939   -5.1024   -6.1739 H       1  noname1     0.0316
     21 H6          0.6225   -4.1905   -7.5885 H       1  noname1     0.0316
     22 H7          0.0406   -5.4714   -4.4518 H       1  noname1     0.0233
     23 H8         -1.3168   -4.4443   -3.9778 H       1  noname1     0.0233
     24 H9         -0.0658   -4.8996   -2.8071 H       1  noname1     0.0233
     25 H10         0.3041   -0.8059   -5.9092 H       1  noname1     0.0579
     26 H11         1.1966   -2.7750   -1.5838 H       1  noname1     0.0310
     27 H12        -0.5094   -3.1605   -1.5080 H       1  noname1     0.0310
     28 H13         3.2392   -4.6419   -7.1757 H       1  noname1     0.0578
     29 H14         2.4996   -0.4399   -6.8648 H       1  noname1     0.0622
     30 H15        -1.1844   -0.9303   -0.9713 H       1  noname1     0.0575
     31 H16         4.9584   -1.6935   -6.3707 H       1  noname1     0.0279
     32 H17         5.0915   -3.1026   -7.4294 H       1  noname1     0.0279
     33 H18         4.5558   -1.5556   -8.0969 H       1  noname1     0.0279
     34 H19        -0.8408    0.9547    0.3324 H       1  noname1     0.0276
     35 H20         0.6322    1.8179   -0.1271 H       1  noname1     0.0276
     36 H21         0.5946    0.8408    1.3578 H       1  noname1     0.0276
     37 H22         2.6976    0.5012   -0.8401 H       1  noname1     0.0276
     38 H23         2.5952   -1.2218   -1.1638 H       1  noname1     0.0276
     39 H24         2.6314   -0.6500    0.5101 H       1  noname1     0.0276
@<TRIPOS>BOND
     1     1     2    1
     2     1     3    1
     3     1     5    1
     4     1    16    1
     5     2     4    1
     6     2     6    1
     7     2    17    1
     8     3     7    1
     9     3    18    1
    10     3    19    1
    11     4     8    1
    12     4    20    1
    13     4    21    1
    14     5    22    1
    15     5    23    1
    16     5    24    1
    17     6    10    2
    18     6    25    1
    19     7    11    1
    20     7    26    1
    21     7    27    1
    22     8     9    2
    23     8    28    1
    24     9    10    1
    25     9    12    1
    26    10    29    1
    27    11    13    2
    28    11    30    1
    29    12    31    1
    30    12    32    1
    31    12    33    1
    32    13    14    1
    33    13    15    1
    34    14    34    1
    35    14    35    1
    36    14    36    1
    37    15    37    1
    38    15    38    1
    39    15    39    1
