@<TRIPOS>MOLECULE
28481
 39 41 0 0 0
SMALL
USER_CHARGES

@<TRIPOS>ATOM
      1 C1          2.6378    0.3851    2.4014 C.3     1  noname11   -0.0232
      2 C2          2.1898    0.7145    3.8416 C.3     1  noname11   -0.0283
      3 C3          3.2961   -0.2959    3.5886 C.3     1  noname11   -0.0314
      4 C4          2.0216   -0.5203    1.3067 C.3     1  noname11   -0.0054
      5 C5          3.1663   -1.7854    3.6605 C.3     1  noname11   -0.0458
      6 C6          2.8335   -1.8160    1.1149 C.2     1  noname11   -0.0736
      7 C7          1.9580    0.2688   -0.0772 C.3     1  noname11   -0.0345
      8 C8          3.5482   -2.4093    2.3161 C.3     1  noname11   -0.0311
      9 C9          0.8808    0.2977    4.4585 C.3     1  noname11   -0.0593
     10 C10         2.6231    2.0793    4.3498 C.3     1  noname11   -0.0593
     11 C11         0.5741   -0.9439    1.6564 C.3     1  noname11   -0.0553
     12 C12         1.5059   -0.6608   -1.2264 C.3     1  noname11   -0.0464
     13 C13         2.9727   -2.4074   -0.0885 C.2     1  noname11   -0.0787
     14 C14         2.4000   -1.8917   -1.3747 C.3     1  noname11   -0.0345
     15 C15         3.2743    0.9513   -0.5084 C.3     1  noname11   -0.0617
     16 H1          3.2656    1.1461    1.9510 H       1  noname11    0.0320
     17 H2          4.3184    0.0032    3.8062 H       1  noname11    0.0311
     18 H3          2.1653   -2.1143    3.9462 H       1  noname11    0.0273
     19 H4          3.8379   -2.1663    4.4392 H       1  noname11    0.0273
     20 H5          1.2101    1.0685    0.0178 H       1  noname11    0.0309
     21 H6          3.3658   -3.4898    2.3651 H       1  noname11    0.0313
     22 H7          4.6272   -2.2678    2.1669 H       1  noname11    0.0313
     23 H8          0.8744    0.5466    5.5264 H       1  noname11    0.0236
     24 H9          0.0537    0.8442    3.9944 H       1  noname11    0.0236
     25 H10         0.6664   -0.7678    4.4079 H       1  noname11    0.0236
     26 H11         2.7455    2.0606    5.4380 H       1  noname11    0.0236
     27 H12         1.8697    2.8328    4.0970 H       1  noname11    0.0236
     28 H13         3.5766    2.3992    3.9155 H       1  noname11    0.0236
     29 H14        -0.0632   -0.0693    1.8226 H       1  noname11    0.0239
     30 H15         0.1031   -1.5418    0.8705 H       1  noname11    0.0239
     31 H16         0.5270   -1.5836    2.5387 H       1  noname11    0.0239
     32 H17         1.4868   -0.1125   -2.1771 H       1  noname11    0.0273
     33 H18         0.4694   -0.9796   -1.0737 H       1  noname11    0.0273
     34 H19         3.5744   -3.3106   -0.1730 H       1  noname11    0.0575
     35 H20         3.2381   -1.6473   -2.0391 H       1  noname11    0.0310
     36 H21         1.8345   -2.6908   -1.8677 H       1  noname11    0.0310
     37 H22         3.2350    1.2502   -1.5621 H       1  noname11    0.0233
     38 H23         4.1434    0.2998   -0.3775 H       1  noname11    0.0233
     39 H24         3.4487    1.8732    0.0547 H       1  noname11    0.0233
@<TRIPOS>BOND
     1     1     2    1
     2     1     3    1
     3     1     4    1
     4     1    16    1
     5     2     3    1
     6     2     9    1
     7     2    10    1
     8     3     5    1
     9     3    17    1
    10     4     6    1
    11     4     7    1
    12     4    11    1
    13     5     8    1
    14     5    18    1
    15     5    19    1
    16     6     8    1
    17     6    13    2
    18     7    12    1
    19     7    15    1
    20     7    20    1
    21     8    21    1
    22     8    22    1
    23     9    23    1
    24     9    24    1
    25     9    25    1
    26    10    26    1
    27    10    27    1
    28    10    28    1
    29    11    29    1
    30    11    30    1
    31    11    31    1
    32    12    14    1
    33    12    32    1
    34    12    33    1
    35    13    14    1
    36    13    34    1
    37    14    35    1
    38    14    36    1
    39    15    37    1
    40    15    38    1
    41    15    39    1
