@<TRIPOS>MOLECULE
5365847
 35 34 0 0 0
SMALL
USER_CHARGES

@<TRIPOS>ATOM
      1 O1          5.0587   -2.4710    2.4680 O.3     1  noname1    -0.3775
      2 C1          0.6744   -1.0954    1.4333 C.3     1  noname1    -0.0287
      3 C2         -0.0992   -2.3629    1.0523 C.3     1  noname1    -0.0311
      4 C3          1.7059   -1.3453    2.5200 C.2     1  noname1    -0.0695
      5 C4         -1.1001   -2.0887   -0.0387 C.2     1  noname1    -0.0837
      6 C5          3.0217   -1.3180    2.2235 C.2     1  noname1    -0.0651
      7 C6          1.1446   -1.5845    3.8956 C.3     1  noname1    -0.0438
      8 C7         -0.9956   -2.3982   -1.3459 C.2     1  noname1    -0.0821
      9 C8          4.1851   -1.5597    3.1337 C.3     1  noname1     0.0651
     10 C9         -2.1151   -2.0812   -2.3027 C.3     1  noname1    -0.0442
     11 C10         0.1983   -3.0528   -1.9850 C.3     1  noname1    -0.0442
     12 C11         6.2151   -2.7568    3.2497 C.3     1  noname1     0.0443
     13 C12         7.0912   -3.7204    2.4742 C.3     1  noname1    -0.0415
     14 H1         -0.0195   -0.3154    1.7734 H       1  noname1     0.0315
     15 H2          1.1607   -0.6884    0.5365 H       1  noname1     0.0315
     16 H3         -0.6513   -2.7443    1.9204 H       1  noname1     0.0313
     17 H4          0.5953   -3.1613    0.7712 H       1  noname1     0.0313
     18 H5         -2.0090   -1.5963    0.3073 H       1  noname1     0.0575
     19 H6          3.3164   -1.1158    1.1940 H       1  noname1     0.0599
     20 H7          0.3847   -0.8313    4.1301 H       1  noname1     0.0276
     21 H8          1.8983   -1.5214    4.6840 H       1  noname1     0.0276
     22 H9          0.6795   -2.5734    3.9518 H       1  noname1     0.0276
     23 H10         4.7097   -0.6137    3.3071 H       1  noname1     0.0611
     24 H11         3.8872   -1.9897    4.0934 H       1  noname1     0.0611
     25 H12        -1.7671   -1.3925   -3.0794 H       1  noname1     0.0276
     26 H13        -2.9700   -1.6139   -1.8026 H       1  noname1     0.0276
     27 H14        -2.4724   -2.9976   -2.7838 H       1  noname1     0.0276
     28 H15        -0.0665   -4.0539   -2.3400 H       1  noname1     0.0276
     29 H16         1.0531   -3.1483   -1.3117 H       1  noname1     0.0276
     30 H17         0.5364   -2.4614   -2.8429 H       1  noname1     0.0276
     31 H18         5.9166   -3.2096    4.2016 H       1  noname1     0.0563
     32 H19         6.7660   -1.8311    3.4490 H       1  noname1     0.0563
     33 H20         7.3850   -3.2860    1.5129 H       1  noname1     0.0254
     34 H21         7.9935   -3.9692    3.0397 H       1  noname1     0.0254
     35 H22         6.5465   -4.6443    2.2530 H       1  noname1     0.0254
@<TRIPOS>BOND
     1     1     9    1
     2     1    12    1
     3     2     3    1
     4     2     4    1
     5     2    14    1
     6     2    15    1
     7     3     5    1
     8     3    16    1
     9     3    17    1
    10     4     6    2
    11     4     7    1
    12     5     8    2
    13     5    18    1
    14     6     9    1
    15     6    19    1
    16     7    20    1
    17     7    21    1
    18     7    22    1
    19     8    10    1
    20     8    11    1
    21     9    23    1
    22     9    24    1
    23    10    25    1
    24    10    26    1
    25    10    27    1
    26    11    28    1
    27    11    29    1
    28    11    30    1
    29    12    13    1
    30    12    31    1
    31    12    32    1
    32    13    33    1
    33    13    34    1
    34    13    35    1
