@<TRIPOS>MOLECULE
53359349
 39 40 0 0 0
SMALL
USER_CHARGES

@<TRIPOS>ATOM
      1 C1          2.6595   -4.3128   -2.7122 C.3     1  noname1    -0.0165
      2 C2          3.1178   -5.2069   -3.8610 C.3     1  noname1    -0.0138
      3 C3          2.4237   -3.9108   -4.1592 C.3     1  noname1    -0.0393
      4 C4          1.4570   -4.7023   -1.8679 C.3     1  noname1    -0.0374
      5 C5          3.9293   -3.8281   -2.0058 C.3     1  noname1    -0.0282
      6 C6          4.5887   -5.2389   -3.7552 C.2     1  noname1    -0.0774
      7 C7          5.0666   -4.4915   -2.7436 C.2     1  noname1    -0.0808
      8 C8          0.9713   -3.5459   -0.9720 C.3     1  noname1    -0.0466
      9 C9          1.7493   -5.9414   -1.0136 C.3     1  noname1    -0.0619
     10 C10         5.3999   -6.0359   -4.7161 C.3     1  noname1    -0.0436
     11 C11         0.4875   -2.3322   -1.7708 C.3     1  noname1    -0.0345
     12 C12        -0.0675   -1.2706   -0.8605 C.2     1  noname1    -0.0839
     13 C13         0.5322   -0.1289   -0.4701 C.2     1  noname1    -0.0822
     14 C14        -0.1852    0.8487    0.4237 C.3     1  noname1    -0.0442
     15 C15         1.9282    0.2856   -0.8462 C.3     1  noname1    -0.0442
     16 H1          2.6039   -6.1426   -4.0392 H       1  noname1     0.0354
     17 H2          3.0027   -3.0904   -4.5701 H       1  noname1     0.0279
     18 H3          1.4179   -3.9635   -4.5612 H       1  noname1     0.0279
     19 H4          0.6300   -4.9736   -2.5384 H       1  noname1     0.0306
     20 H5          4.0107   -2.7381   -2.0694 H       1  noname1     0.0315
     21 H6          3.9574   -4.1222   -0.9530 H       1  noname1     0.0315
     22 H7          6.1074   -4.3658   -2.4854 H       1  noname1     0.0575
     23 H8          1.7705   -3.2369   -0.2863 H       1  noname1     0.0272
     24 H9          0.1472   -3.9086   -0.3428 H       1  noname1     0.0272
     25 H10         2.0893   -6.7772   -1.6336 H       1  noname1     0.0233
     26 H11         2.5229   -5.7476   -0.2640 H       1  noname1     0.0233
     27 H12         0.8469   -6.2658   -0.4841 H       1  noname1     0.0233
     28 H13         5.2212   -5.6942   -5.7405 H       1  noname1     0.0276
     29 H14         6.4717   -5.9450   -4.5121 H       1  noname1     0.0276
     30 H15         5.1329   -7.0955   -4.6529 H       1  noname1     0.0276
     31 H16        -0.3081   -2.6371   -2.4620 H       1  noname1     0.0310
     32 H17         1.2901   -1.9324   -2.3962 H       1  noname1     0.0310
     33 H18        -1.0787   -1.4731   -0.5073 H       1  noname1     0.0575
     34 H19        -1.1996    0.5190    0.6714 H       1  noname1     0.0276
     35 H20        -0.2640    1.8236   -0.0685 H       1  noname1     0.0276
     36 H21         0.3618    0.9759    1.3636 H       1  noname1     0.0276
     37 H22         1.8976    1.1745   -1.4845 H       1  noname1     0.0276
     38 H23         2.4839   -0.4914   -1.3761 H       1  noname1     0.0276
     39 H24         2.5037    0.5274    0.0539 H       1  noname1     0.0276
@<TRIPOS>BOND
     1     1     2    1
     2     1     3    1
     3     1     4    1
     4     1     5    1
     5     2     3    1
     6     2     6    1
     7     2    16    1
     8     3    17    1
     9     3    18    1
    10     4     8    1
    11     4     9    1
    12     4    19    1
    13     5     7    1
    14     5    20    1
    15     5    21    1
    16     6     7    2
    17     6    10    1
    18     7    22    1
    19     8    11    1
    20     8    23    1
    21     8    24    1
    22     9    25    1
    23     9    26    1
    24     9    27    1
    25    10    28    1
    26    10    29    1
    27    10    30    1
    28    11    12    1
    29    11    31    1
    30    11    32    1
    31    12    13    2
    32    12    33    1
    33    13    14    1
    34    13    15    1
    35    14    34    1
    36    14    35    1
    37    14    36    1
    38    15    37    1
    39    15    38    1
    40    15    39    1
