@<TRIPOS>MOLECULE
12222
 6 5 0 0 0
SMALL
USER_CHARGES

@<TRIPOS>ATOM
      1 O1          1.2510   -0.0151    0.0000 O.2     1  noname11   -0.2887
      2 C1          0.0286   -0.0100    0.0000 C.2     1  noname11    0.1032
      3 C2         -0.7080    1.2296    0.0000 C.1     1  noname11    0.0118
      4 C3         -1.3207    2.2629    0.0000 C.1     1  noname11   -0.0699
      5 H1         -0.5805   -0.9275    0.0000 H       1  noname11    0.1194
      6 H2         -1.8539    3.1855    0.0000 H       1  noname11    0.1242
@<TRIPOS>BOND
     1     1     2    2
     2     2     3    1
     3     2     5    1
     4     3     4    3
     5     4     6    1
