@<TRIPOS>MOLECULE
91710638
40 40 1
SMALL
USER_CHARGES
@<TRIPOS>ATOM
1	O1     1.0006    -0.2683     0.3139	O.3	1	noname	-0.3919
2	C1     0.6058     3.9839    -3.9741	C.3	1	noname	-0.0225
3	C2     1.5164     4.5623    -2.8963	C.2	1	noname	-0.0719
4	C3    -0.1977     2.7297    -3.5625	C.3	1	noname	-0.0434
5	C4     2.8602     5.0611    -3.3885	C.3	1	noname	-0.0133
6	C5     0.6997     1.5489    -3.1771	C.3	1	noname	-0.0341
7	C6     1.1764     4.6430    -1.5941	C.2	1	noname	-0.0759
8	C7    -0.3474     5.0717    -4.4819	C.3	1	noname	-0.0587
9	C8     2.0631     5.2067    -0.5187	C.3	1	noname	-0.0138
10	C9     3.4003     5.6959    -1.0160	C.2	1	noname	-0.0759
11	C10     3.7460     5.6251    -2.3140	C.2	1	noname	-0.0784
12	C11    -0.1187     0.3337    -2.8337	C.2	1	noname	-0.0723
13	C12     4.3179     6.2658     0.0256	C.3	1	noname	-0.0436
14	C13    -0.4054    -0.1352    -1.6023	C.2	1	noname	-0.0629
15	C14     0.0039     0.5239    -0.3128	C.3	1	noname	0.0640
16	C15    -1.2171    -1.3937    -1.4313	C.3	1	noname	-0.0417
17	H1     1.2361     3.6820    -4.8223	H	1	noname	0.0346
18	H2    -0.8316     2.4277    -4.4077	H	1	noname	0.0276
19	H3    -0.8858     2.9640    -2.7405	H	1	noname	0.0276
20	H4     3.3939     4.2324    -3.8692	H	1	noname	0.0356
21	H5     2.7004     5.8378    -4.1455	H	1	noname	0.0356
22	H6     1.3713     1.8126    -2.3552	H	1	noname	0.0310
23	H7     1.3518     1.2915    -4.0212	H	1	noname	0.0310
24	H8     0.2034     4.2990    -1.2557	H	1	noname	0.0579
25	H9    -0.9457     4.7011    -5.3214	H	1	noname	0.0236
26	H10     0.2041     5.9508    -4.8331	H	1	noname	0.0236
27	H11    -1.0380     5.3981    -3.6962	H	1	noname	0.0236
28	H12     2.2231     4.4292     0.2377	H	1	noname	0.0355
29	H13     1.5339     6.0367    -0.0356	H	1	noname	0.0355
30	H14     4.7175     5.9877    -2.6401	H	1	noname	0.0578
31	H15    -0.4905    -0.2143    -3.6996	H	1	noname	0.0576
32	H16     3.8492     7.1255     0.5152	H	1	noname	0.0276
33	H17     5.2680     6.6023    -0.4021	H	1	noname	0.0276
34	H18     4.5431     5.5116     0.7866	H	1	noname	0.0276
35	H19     0.3988     1.5339    -0.4463	H	1	noname	0.0611
36	H20    -0.8524     0.6057     0.3648	H	1	noname	0.0611
37	H21    -0.6409    -2.1499    -0.8884	H	1	noname	0.0277
38	H22    -1.5128    -1.8301    -2.3913	H	1	noname	0.0277
39	H23    -2.1322    -1.1819    -0.8686	H	1	noname	0.0277
40	H24     1.6832    -0.4297    -0.3600	H	1	noname	0.2104
@<TRIPOS>BOND
1	1	15	1
2	1	40	1
3	2	3	1
4	2	4	1
5	2	8	1
6	2	17	1
7	3	5	1
8	3	7	2
9	4	6	1
10	4	18	1
11	4	19	1
12	5	11	1
13	5	20	1
14	5	21	1
15	6	12	1
16	6	22	1
17	6	23	1
18	7	9	1
19	7	24	1
20	8	25	1
21	8	26	1
22	8	27	1
23	9	10	1
24	9	28	1
25	9	29	1
26	10	11	2
27	10	13	1
28	11	30	1
29	12	14	2
30	12	31	1
31	13	32	1
32	13	33	1
33	13	34	1
34	14	15	1
35	14	16	1
36	15	35	1
37	15	36	1
38	16	37	1
39	16	38	1
40	16	39	1
@<TRIPOS>SUBSTRUCTURE
1	noname	1
