REMARK  8 active torsions:
REMARK  status: ('A' for Active; 'I' for Inactive)
REMARK    1  A    between atoms: C1_1  and  C2_2 
REMARK    2  A    between atoms: C1_1  and  C3_3 
REMARK    3  A    between atoms: C1_1  and  C5_5 
REMARK    4  A    between atoms: C3_3  and  C7_7 
REMARK    5  A    between atoms: C7_7  and  C11_11 
REMARK    6  A    between atoms: C9_9  and  C12_12 
REMARK    7  A    between atoms: C13_13  and  C14_14 
REMARK    8  A    between atoms: C13_13  and  C15_15 
ROOT
ATOM      1  C1  non d   1       0.554  -3.341  -4.213  0.00  0.00    -0.037 C 
ATOM      2  H1  non d   1       1.611  -3.529  -3.979  0.00  0.00     0.031 H 
ENDROOT
BRANCH   1   3
ATOM      3  C2  non d   1       0.437  -3.038  -5.749  0.00  0.00    -0.017 C 
ATOM      4  C4  non d   1       1.148  -4.110  -6.627  0.00  0.00    -0.028 C 
ATOM      5  C8  non d   1       2.593  -3.806  -6.927  0.00  0.00    -0.072 C 
ATOM      6  H5  non d   1       1.094  -5.102  -6.174  0.00  0.00     0.032 H 
ATOM      7  H6  non d   1       0.623  -4.191  -7.588  0.00  0.00     0.032 H 
ATOM      8  C9  non d   1       3.069  -2.549  -6.911  0.00  0.00    -0.066 C 
ATOM      9  H13 non d   1       3.239  -4.642  -7.176  0.00  0.00     0.058 H 
ATOM     10  C10 non d   1       2.168  -1.449  -6.634  0.00  0.00    -0.067 C 
ATOM     11  C6  non d   1       0.953  -1.655  -6.104  0.00  0.00    -0.074 C 
ATOM     12  H14 non d   1       2.500  -0.440  -6.865  0.00  0.00     0.062 H 
ATOM     13  H10 non d   1       0.304  -0.806  -5.909  0.00  0.00     0.058 H 
ATOM     14  H2  non d   1      -0.630  -3.062  -6.012  0.00  0.00     0.035 H 
BRANCH   8  15
ATOM     15  C12 non d   1       4.495  -2.208  -7.219  0.00  0.00    -0.040 C 
ATOM     16  H16 non d   1       4.958  -1.694  -6.371  0.00  0.00     0.028 H 
ATOM     17  H17 non d   1       5.091  -3.103  -7.429  0.00  0.00     0.028 H 
ATOM     18  H18 non d   1       4.556  -1.556  -8.097  0.00  0.00     0.028 H 
ENDBRANCH   8  15
ENDBRANCH   1   3
BRANCH   1  19
ATOM     19  C3  non d   1       0.083  -2.148  -3.338  0.00  0.00    -0.047 C 
ATOM     20  H3  non d   1       0.687  -1.265  -3.576  0.00  0.00     0.027 H 
ATOM     21  H4  non d   1      -0.957  -1.899  -3.588  0.00  0.00     0.027 H 
BRANCH  19  22
ATOM     22  C7  non d   1       0.202  -2.391  -1.828  0.00  0.00    -0.035 C 
ATOM     23  H11 non d   1       1.197  -2.775  -1.584  0.00  0.00     0.031 H 
ATOM     24  H12 non d   1      -0.509  -3.160  -1.508  0.00  0.00     0.031 H 
BRANCH  22  25
ATOM     25  C11 non d   1      -0.118  -1.142  -1.051  0.00  0.00    -0.084 C 
ATOM     26  C13 non d   1       0.749  -0.302  -0.453  0.00  0.00    -0.082 C 
ATOM     27  H15 non d   1      -1.184  -0.930  -0.971  0.00  0.00     0.058 H 
BRANCH  26  28
ATOM     28  C14 non d   1       0.253   0.893   0.319  0.00  0.00    -0.044 C 
ATOM     29  H19 non d   1      -0.841   0.955   0.332  0.00  0.00     0.028 H 
ATOM     30  H20 non d   1       0.632   1.818  -0.127  0.00  0.00     0.028 H 
ATOM     31  H21 non d   1       0.595   0.841   1.358  0.00  0.00     0.028 H 
ENDBRANCH  26  28
BRANCH  26  32
ATOM     32  C15 non d   1       2.247  -0.434  -0.492  0.00  0.00    -0.044 C 
ATOM     33  H22 non d   1       2.698   0.501  -0.840  0.00  0.00     0.028 H 
ATOM     34  H23 non d   1       2.595  -1.222  -1.164  0.00  0.00     0.028 H 
ATOM     35  H24 non d   1       2.631  -0.650   0.510  0.00  0.00     0.028 H 
ENDBRANCH  26  32
ENDBRANCH  22  25
ENDBRANCH  19  22
ENDBRANCH   1  19
BRANCH   1  36
ATOM     36  C5  non d   1      -0.241  -4.607  -3.847  0.00  0.00    -0.062 C 
ATOM     37  H7  non d   1       0.041  -5.471  -4.452  0.00  0.00     0.023 H 
ATOM     38  H8  non d   1      -1.317  -4.444  -3.978  0.00  0.00     0.023 H 
ATOM     39  H9  non d   1      -0.066  -4.900  -2.807  0.00  0.00     0.023 H 
ENDBRANCH   1  36
TORSDOF 8
