@<TRIPOS>MOLECULE
160799
 42 43 0 0 0
SMALL
USER_CHARGES

@<TRIPOS>ATOM
      1 O1         -3.4282    3.7922   -0.0156 O.3     1  noname11   -0.3897
      2 C1         -1.4381    2.6157    0.7870 C.3     1  noname11   -0.0058
      3 C2         -2.0239    1.2091    0.4449 C.3     1  noname11   -0.0144
      4 C3         -2.8617    0.6727    1.6521 C.3     1  noname11   -0.0323
      5 C4         -2.5639    3.6294    1.1119 C.3     1  noname11    0.0655
      6 C5         -3.9646    1.6940    2.0072 C.3     1  noname11   -0.0469
      7 C6         -3.4115    3.0921    2.2746 C.3     1  noname11   -0.0238
      8 C7         -0.5018    3.0654   -0.3486 C.3     1  noname11   -0.0434
      9 C8         -3.4463   -0.7654    1.4580 C.3     1  noname11   -0.0437
     10 C9         -0.9248    0.2663   -0.0117 C.2     1  noname11   -0.0801
     11 C10         0.6872    2.1114   -0.4849 C.3     1  noname11   -0.0319
     12 C11        -2.0275    5.0152    1.4935 C.3     1  noname11   -0.0358
     13 C12         0.2965    0.6602   -0.4157 C.2     1  noname11   -0.0786
     14 C13        -4.1878   -1.2665    2.7048 C.3     1  noname11   -0.0625
     15 C14        -4.3525   -0.9127    0.2325 C.3     1  noname11   -0.0625
     16 C15         1.3494   -0.3217   -0.8438 C.3     1  noname11   -0.0439
     17 H1         -0.8200    2.5168    1.6933 H       1  noname11    0.0338
     18 H2         -2.7018    1.3185   -0.4127 H       1  noname11    0.0352
     19 H3         -2.1831    0.6146    2.5165 H       1  noname11    0.0311
     20 H4         -4.7018    1.7512    1.1980 H       1  noname11    0.0271
     21 H5         -4.5058    1.3777    2.9051 H       1  noname11    0.0271
     22 H6         -2.8141    3.0690    3.1952 H       1  noname11    0.0296
     23 H7         -4.2622    3.7607    2.4587 H       1  noname11    0.0296
     24 H8         -1.0504    3.1020   -1.2983 H       1  noname11    0.0274
     25 H9         -0.1078    4.0705   -0.1690 H       1  noname11    0.0274
     26 H10        -2.6056   -1.4567    1.3287 H       1  noname11    0.0300
     27 H11        -1.1582   -0.7937   -0.0531 H       1  noname11    0.0578
     28 H12         1.1898    2.3190   -1.4371 H       1  noname11    0.0312
     29 H13         1.4119    2.3155    0.3132 H       1  noname11    0.0312
     30 H14        -1.5587    5.5185    0.6418 H       1  noname11    0.0260
     31 H15        -1.3023    4.9555    2.3114 H       1  noname11    0.0260
     32 H16        -2.8467    5.6726    1.8084 H       1  noname11    0.0260
     33 H17        -2.9239    4.2205   -0.7278 H       1  noname11    0.2108
     34 H18        -3.5813   -1.1242    3.6051 H       1  noname11    0.0233
     35 H19        -5.1459   -0.7568    2.8460 H       1  noname11    0.0233
     36 H20        -4.4008   -2.3377    2.6154 H       1  noname11    0.0233
     37 H21        -3.8262   -0.6590   -0.6918 H       1  noname11    0.0233
     38 H22        -5.2427   -0.2808    0.3058 H       1  noname11    0.0233
     39 H23        -4.6938   -1.9493    0.1331 H       1  noname11    0.0233
     40 H24         1.0070   -1.3583   -0.7582 H       1  noname11    0.0276
     41 H25         2.2430   -0.2137   -0.2204 H       1  noname11    0.0276
     42 H26         1.6296   -0.1477   -1.8877 H       1  noname11    0.0276
@<TRIPOS>BOND
     1     5     1    1
     2     1    33    1
     3     2     3    1
     4     2     5    1
     5     2     8    1
     6     2    17    1
     7     3     4    1
     8     3    10    1
     9     3    18    1
    10     4     6    1
    11     4     9    1
    12     4    19    1
    13     5     7    1
    14     5    12    1
    15     6     7    1
    16     6    20    1
    17     6    21    1
    18     7    22    1
    19     7    23    1
    20     8    11    1
    21     8    24    1
    22     8    25    1
    23     9    14    1
    24     9    15    1
    25     9    26    1
    26    10    13    2
    27    10    27    1
    28    11    13    1
    29    11    28    1
    30    11    29    1
    31    12    30    1
    32    12    31    1
    33    12    32    1
    34    13    16    1
    35    14    34    1
    36    14    35    1
    37    14    36    1
    38    15    37    1
    39    15    38    1
    40    15    39    1
    41    16    40    1
    42    16    41    1
    43    16    42    1
