REMARK  5 active torsions:
REMARK  status: ('A' for Active; 'I' for Inactive)
REMARK    1  A    between atoms: C1_1  and  C5_5 
REMARK    2  A    between atoms: C5_5  and  C12_12 
REMARK    3  A    between atoms: C5_5  and  C13_13 
REMARK    4  A    between atoms: C7_7  and  C14_14 
REMARK    5  A    between atoms: C11_11  and  C15_15 
ROOT
ATOM      1  C1  non d   1      -2.457   0.336   1.838  0.00  0.00    -0.029 C 
ATOM      2  C2  non d   1      -1.718   0.879   0.579  0.00  0.00     0.001 C 
ATOM      3  C3  non d   1      -1.968   1.051   3.105  0.00  0.00    -0.046 C 
ATOM      4  C4  non d   1      -1.370   2.368   0.632  0.00  0.00    -0.067 C 
ATOM      5  C6  non d   1      -2.049   2.571   3.030  0.00  0.00    -0.032 C 
ATOM      6  C7  non d   1      -1.561   3.147   1.721  0.00  0.00    -0.070 C 
ATOM      7  C8  non d   1      -0.687   2.803  -0.646  0.00  0.00    -0.027 C 
ATOM      8  C9  non d   1      -0.469   0.079   0.245  0.00  0.00    -0.077 C 
ATOM      9  C10 non d   1       0.653   2.061  -0.789  0.00  0.00    -0.029 C 
ATOM     10  C11 non d   1       0.608   0.604  -0.374  0.00  0.00    -0.077 C 
ATOM     11  H1  non d   1      -2.166  -0.717   1.970  0.00  0.00     0.031 H 
ATOM     12  H2  non d   1      -2.387   0.722  -0.279  0.00  0.00     0.040 H 
ATOM     13  H3  non d   1      -0.916   0.774   3.265  0.00  0.00     0.027 H 
ATOM     14  H4  non d   1      -2.497   0.696   3.996  0.00  0.00     0.027 H 
ATOM     15  H6  non d   1      -1.436   2.972   3.849  0.00  0.00     0.031 H 
ATOM     16  H7  non d   1      -3.069   2.914   3.224  0.00  0.00     0.031 H 
ATOM     17  H8  non d   1      -1.339   2.564  -1.497  0.00  0.00     0.032 H 
ATOM     18  H9  non d   1      -0.502   3.877  -0.705  0.00  0.00     0.032 H 
ATOM     19  H10 non d   1      -0.480  -0.981   0.487  0.00  0.00     0.058 H 
ATOM     20  H11 non d   1       0.981   2.137  -1.833  0.00  0.00     0.032 H 
ATOM     21  H12 non d   1       1.411   2.568  -0.177  0.00  0.00     0.032 H 
ENDROOT
BRANCH   1  22
ATOM     22  C5  non d   1      -4.007   0.272   1.640  0.00  0.00    -0.043 C 
ATOM     23  H5  non d   1      -4.172  -0.423   0.804  0.00  0.00     0.030 H 
BRANCH  22  24
ATOM     24  C12 non d   1      -4.707   1.574   1.248  0.00  0.00    -0.062 C 
ATOM     25  H13 non d   1      -4.241   2.048   0.380  0.00  0.00     0.023 H 
ATOM     26  H14 non d   1      -4.734   2.293   2.068  0.00  0.00     0.023 H 
ATOM     27  H15 non d   1      -5.749   1.370   0.974  0.00  0.00     0.023 H 
ENDBRANCH  22  24
BRANCH  22  28
ATOM     28  C13 non d   1      -4.718  -0.344   2.850  0.00  0.00    -0.062 C 
ATOM     29  H16 non d   1      -4.241  -1.283   3.151  0.00  0.00     0.023 H 
ATOM     30  H17 non d   1      -4.719   0.334   3.709  0.00  0.00     0.023 H 
ATOM     31  H18 non d   1      -5.763  -0.568   2.608  0.00  0.00     0.023 H 
ENDBRANCH  22  28
ENDBRANCH   1  22
BRANCH   6  32
ATOM     32  C14 non d   1      -1.270   4.622   1.796  0.00  0.00    -0.044 C 
ATOM     33  H19 non d   1      -2.113   5.146   2.260  0.00  0.00     0.028 H 
ATOM     34  H20 non d   1      -1.117   5.091   0.822  0.00  0.00     0.028 H 
ATOM     35  H21 non d   1      -0.377   4.800   2.404  0.00  0.00     0.028 H 
ENDBRANCH   6  32
BRANCH  10  36
ATOM     36  C15 non d   1       1.827  -0.209  -0.692  0.00  0.00    -0.044 C 
ATOM     37  H22 non d   1       2.002  -0.226  -1.772  0.00  0.00     0.028 H 
ATOM     38  H23 non d   1       2.708   0.220  -0.203  0.00  0.00     0.028 H 
ATOM     39  H24 non d   1       1.730  -1.246  -0.353  0.00  0.00     0.028 H 
ENDBRANCH  10  36
TORSDOF 5
