@<TRIPOS>MOLECULE
91723677
39 40 1
SMALL
USER_CHARGES
@<TRIPOS>ATOM
1	C1    -1.6585     2.2415     1.2832	C.3	1	noname	-0.0136
2	C2    -3.2837     0.6238     0.0312	C.3	1	noname	-0.0173
3	C3    -2.8092     3.2841     1.4054	C.3	1	noname	-0.0373
4	C4    -1.8772     1.1828     0.2080	C.2	1	noname	-0.0616
5	C5    -4.2204     1.1460     1.1367	C.3	1	noname	-0.0461
6	C6    -4.2165     2.6594     1.2903	C.3	1	noname	-0.0495
7	C7    -3.8242     0.6869    -1.4332	C.3	1	noname	-0.0405
8	C8    -0.2520     2.8994     1.2408	C.3	1	noname	-0.0276
9	C9    -2.7053     4.4902     0.4628	C.3	1	noname	-0.0619
10	C10    -0.8288     0.6365    -0.4394	C.2	1	noname	-0.0607
11	C11     0.8227     2.0471     0.6313	C.2	1	noname	-0.0721
12	C12     0.5458     1.0016    -0.1632	C.2	1	noname	-0.0643
13	C13    -5.2374     0.1082    -1.5639	C.3	1	noname	-0.0622
14	C14    -3.7693     2.0594    -2.1035	C.3	1	noname	-0.0622
15	C15     1.6131     0.1668    -0.8068	C.3	1	noname	-0.0401
16	H1    -1.6819     1.6703     2.2262	H	1	noname	0.0355
17	H2    -3.2009    -0.4542     0.2471	H	1	noname	0.0351
18	H3    -2.7363     3.7014     2.4206	H	1	noname	0.0306
19	H4    -5.2467     0.7936     0.9921	H	1	noname	0.0273
20	H5    -3.9060     0.7070     2.0945	H	1	noname	0.0273
21	H6    -4.7819     3.1047     0.4657	H	1	noname	0.0270
22	H7    -4.7873     2.9163     2.1925	H	1	noname	0.0270
23	H8    -3.1778     0.0319    -2.0346	H	1	noname	0.0303
24	H9     0.0390     3.1627     2.2652	H	1	noname	0.0316
25	H10    -0.2517     3.8315     0.6695	H	1	noname	0.0316
26	H11    -2.5358     4.1842    -0.5718	H	1	noname	0.0233
27	H12    -1.8906     5.1575     0.7603	H	1	noname	0.0233
28	H13    -3.6189     5.0945     0.4951	H	1	noname	0.0233
29	H14    -0.9852    -0.1656    -1.1570	H	1	noname	0.0625
30	H15     1.8518     2.3349     0.8262	H	1	noname	0.0578
31	H16    -5.3082    -0.8693    -1.0757	H	1	noname	0.0233
32	H17    -5.9904     0.7718    -1.1272	H	1	noname	0.0233
33	H18    -5.4978    -0.0301    -2.6192	H	1	noname	0.0233
34	H19    -2.7549     2.4671    -2.1011	H	1	noname	0.0233
35	H20    -4.4409     2.7777    -1.6296	H	1	noname	0.0233
36	H21    -4.0752     1.9796    -3.1531	H	1	noname	0.0233
37	H22     1.5280    -0.8780    -0.4891	H	1	noname	0.0279
38	H23     2.6179     0.5126    -0.5408	H	1	noname	0.0279
39	H24     1.5274     0.2065    -1.8980	H	1	noname	0.0279
@<TRIPOS>BOND
1	1	3	1
2	1	4	1
3	1	8	1
4	1	16	1
5	2	4	1
6	2	5	1
7	2	7	1
8	2	17	1
9	3	6	1
10	3	9	1
11	3	18	1
12	4	10	2
13	5	6	1
14	5	19	1
15	5	20	1
16	6	21	1
17	6	22	1
18	7	13	1
19	7	14	1
20	7	23	1
21	8	11	1
22	8	24	1
23	8	25	1
24	9	26	1
25	9	27	1
26	9	28	1
27	10	12	1
28	10	29	1
29	11	12	2
30	11	30	1
31	12	15	1
32	13	31	1
33	13	32	1
34	13	33	1
35	14	34	1
36	14	35	1
37	14	36	1
38	15	37	1
39	15	38	1
40	15	39	1
@<TRIPOS>SUBSTRUCTURE
1	noname	1
