REMARK  6 active torsions:
REMARK  status: ('A' for Active; 'I' for Inactive)
REMARK    1  A    between atoms: C1_1  and  C6_6 
REMARK    2  A    between atoms: C1_1  and  C7_7 
REMARK    3  A    between atoms: C2_2  and  C4_4 
REMARK    4  A    between atoms: C2_2  and  C8_8 
REMARK    5  A    between atoms: C3_3  and  C5_5 
REMARK    6  A    between atoms: C9_9  and  C10_10 
ROOT
ATOM      1  C4  non d   1       0.283  -1.360   0.714  0.00  0.00    -0.061 C 
ATOM      2  C5  non d   1       1.261  -1.531   1.621  0.00  0.00    -0.062 C 
ATOM      3  H2  non d   1      -0.518  -2.094   0.698  0.00  0.00     0.062 H 
ATOM      4  H3  non d   1       2.081  -0.825   1.675  0.00  0.00     0.062 H 
ENDROOT
BRANCH   1   5
ATOM      5  C2  non d   1       0.189  -0.276  -0.260  0.00  0.00    -0.065 C 
ATOM      6  C9  non d   1      -0.822  -0.163  -1.147  0.00  0.00    -0.074 C 
ATOM      7  H13 non d   1      -0.804   0.684  -1.834  0.00  0.00     0.058 H 
BRANCH   5   8
ATOM      8  C8  non d   1       1.283   0.767  -0.265  0.00  0.00    -0.040 C 
ATOM      9  H10 non d   1       2.255   0.309  -0.476  0.00  0.00     0.028 H 
ATOM     10  H11 non d   1       1.333   1.282   0.701  0.00  0.00     0.028 H 
ATOM     11  H12 non d   1       1.121   1.536  -1.029  0.00  0.00     0.028 H 
ENDBRANCH   5   8
BRANCH   6  12
ATOM     12  C10 non d   1      -2.014  -1.044  -1.354  0.00  0.00    -0.046 C 
ATOM     13  H14 non d   1      -2.929  -0.463  -1.201  0.00  0.00     0.027 H 
ATOM     14  H15 non d   1      -2.019  -1.416  -2.384  0.00  0.00     0.027 H 
ATOM     15  H16 non d   1      -2.055  -1.909  -0.690  0.00  0.00     0.027 H 
ENDBRANCH   6  12
ENDBRANCH   1   5
BRANCH   2  16
ATOM     16  C3  non d   1       1.274  -2.640   2.554  0.00  0.00    -0.067 C 
ATOM     17  C1  non d   1       2.201  -2.900   3.496  0.00  0.00    -0.072 C 
ATOM     18  H1  non d   1       0.430  -3.326   2.463  0.00  0.00     0.062 H 
BRANCH  17  19
ATOM     19  C6  non d   1       2.054  -4.108   4.387  0.00  0.00    -0.044 C 
ATOM     20  H4  non d   1       1.153  -4.688   4.162  0.00  0.00     0.028 H 
ATOM     21  H5  non d   1       1.997  -3.800   5.437  0.00  0.00     0.028 H 
ATOM     22  H6  non d   1       2.915  -4.774   4.266  0.00  0.00     0.028 H 
ENDBRANCH  17  19
BRANCH  17  23
ATOM     23  C7  non d   1       3.432  -2.084   3.783  0.00  0.00    -0.044 C 
ATOM     24  H7  non d   1       3.412  -1.726   4.818  0.00  0.00     0.028 H 
ATOM     25  H8  non d   1       3.542  -1.208   3.140  0.00  0.00     0.028 H 
ATOM     26  H9  non d   1       4.328  -2.699   3.649  0.00  0.00     0.028 H 
ENDBRANCH  17  23
ENDBRANCH   2  16
TORSDOF 6
