@<TRIPOS>MOLECULE
6432312
 39 39 0 0 0
SMALL
USER_CHARGES

@<TRIPOS>ATOM
      1 C1         -2.1478   -0.6503   -2.9466 C.3     1  noname1    -0.0077
      2 C2         -2.1513    0.1121   -1.5650 C.3     1  noname1    -0.0082
      3 C3         -0.7203   -1.1510   -3.2959 C.3     1  noname1    -0.0400
      4 C4         -1.3735   -0.6575   -0.4574 C.3     1  noname1    -0.0244
      5 C5         -0.0307   -1.9211   -2.1665 C.3     1  noname1    -0.0309
      6 C6          0.0137   -1.1215   -0.8802 C.2     1  noname1    -0.0730
      7 C7         -2.6105    0.2736   -4.1002 C.3     1  noname1    -0.0555
      8 C8         -1.7605    1.6002   -1.6035 C.2     1  noname1    -0.0843
      9 C9         -3.0783   -1.8748   -2.8276 C.2     1  noname1    -0.0911
     10 C10         1.1484   -0.8550   -0.1848 C.2     1  noname1    -0.0749
     11 C11        -2.8915    2.5682   -1.3627 C.3     1  noname1    -0.0439
     12 C12        -0.5159    2.0620   -1.8129 C.2     1  noname1    -0.0916
     13 C13        -4.1866   -2.1481   -3.5314 C.2     1  noname1    -0.0965
     14 C14         2.5379   -1.2300   -0.6441 C.3     1  noname1    -0.0439
     15 C15         1.1713   -0.1422    1.1479 C.3     1  noname1    -0.0439
     16 H1         -3.1970    0.1078   -1.2169 H       1  noname1     0.0360
     17 H2         -0.0841   -0.3021   -3.5775 H       1  noname1     0.0279
     18 H3         -0.7604   -1.7977   -4.1832 H       1  noname1     0.0279
     19 H4         -1.3527   -0.0288    0.4373 H       1  noname1     0.0319
     20 H5         -1.9455   -1.5488   -0.1679 H       1  noname1     0.0319
     21 H6          0.9580   -2.2245   -2.5174 H       1  noname1     0.0313
     22 H7         -0.5588   -2.8621   -1.9705 H       1  noname1     0.0313
     23 H8         -3.6026    0.6961   -3.9049 H       1  noname1     0.0239
     24 H9         -2.6556   -0.2688   -5.0526 H       1  noname1     0.0239
     25 H10        -1.9194    1.1085   -4.2586 H       1  noname1     0.0239
     26 H11        -2.8069   -2.6083   -2.0686 H       1  noname1     0.0575
     27 H12        -2.5619    3.6114   -1.4115 H       1  noname1     0.0276
     28 H13        -3.3246    2.4035   -0.3706 H       1  noname1     0.0276
     29 H14        -3.6770    2.4344   -2.1129 H       1  noname1     0.0276
     30 H15         0.3274    1.4027   -1.9831 H       1  noname1     0.0537
     31 H16        -0.2987    3.1261   -1.8203 H       1  noname1     0.0537
     32 H17        -4.7506   -3.0558   -3.3351 H       1  noname1     0.0534
     33 H18        -4.5700   -1.4979   -4.3097 H       1  noname1     0.0534
     34 H19         2.6158   -1.4036   -1.7186 H       1  noname1     0.0276
     35 H20         2.8795   -2.1264   -0.1170 H       1  noname1     0.0276
     36 H21         3.2388   -0.4162   -0.4244 H       1  noname1     0.0276
     37 H22         1.9351   -0.5826    1.7993 H       1  noname1     0.0276
     38 H23         0.2330   -0.2208    1.7009 H       1  noname1     0.0276
     39 H24         1.4129    0.9157    1.0056 H       1  noname1     0.0276
@<TRIPOS>BOND
     1     1     2    1
     2     1     3    1
     3     1     7    1
     4     1     9    1
     5     2     4    1
     6     2     8    1
     7     2    16    1
     8     3     5    1
     9     3    17    1
    10     3    18    1
    11     4     6    1
    12     4    19    1
    13     4    20    1
    14     5     6    1
    15     5    21    1
    16     5    22    1
    17     6    10    2
    18     7    23    1
    19     7    24    1
    20     7    25    1
    21     8    11    1
    22     8    12    2
    23     9    13    2
    24     9    26    1
    25    10    14    1
    26    10    15    1
    27    11    27    1
    28    11    28    1
    29    11    29    1
    30    12    30    1
    31    12    31    1
    32    13    32    1
    33    13    33    1
    34    14    34    1
    35    14    35    1
    36    14    36    1
    37    15    37    1
    38    15    38    1
    39    15    39    1
