REMARK  10 active torsions:
REMARK  status: ('A' for Active; 'I' for Inactive)
REMARK    1  A    between atoms: O1_1  and  C8_9 
REMARK    2  A    between atoms: O1_1  and  C11_12 
REMARK    3  A    between atoms: C1_2  and  C2_3 
REMARK    4  A    between atoms: C1_2  and  C3_4 
REMARK    5  A    between atoms: C2_3  and  C4_5 
REMARK    6  A    between atoms: C3_4  and  C6_7 
REMARK    7  A    between atoms: C5_6  and  C8_9 
REMARK    8  A    between atoms: C7_8  and  C9_10 
REMARK    9  A    between atoms: C7_8  and  C10_11 
REMARK   10  A    between atoms: C11_12  and  C12_13 
ROOT
ATOM      1  C3  non d   1       1.706  -1.345   2.520  0.00  0.00    -0.070 C 
ATOM      2  C5  non d   1       3.022  -1.318   2.224  0.00  0.00    -0.065 C 
ATOM      3  H6  non d   1       3.316  -1.116   1.194  0.00  0.00     0.060 H 
ENDROOT
BRANCH   1   4
ATOM      4  C1  non d   1       0.674  -1.095   1.433  0.00  0.00    -0.029 C 
ATOM      5  H1  non d   1      -0.019  -0.315   1.773  0.00  0.00     0.032 H 
ATOM      6  H2  non d   1       1.161  -0.688   0.536  0.00  0.00     0.032 H 
BRANCH   4   7
ATOM      7  C2  non d   1      -0.099  -2.363   1.052  0.00  0.00    -0.031 C 
ATOM      8  H3  non d   1      -0.651  -2.744   1.920  0.00  0.00     0.031 H 
ATOM      9  H4  non d   1       0.595  -3.161   0.771  0.00  0.00     0.031 H 
BRANCH   7  10
ATOM     10  C4  non d   1      -1.100  -2.089  -0.039  0.00  0.00    -0.084 C 
ATOM     11  C7  non d   1      -0.996  -2.398  -1.346  0.00  0.00    -0.082 C 
ATOM     12  H5  non d   1      -2.009  -1.596   0.307  0.00  0.00     0.058 H 
BRANCH  11  13
ATOM     13  C9  non d   1      -2.115  -2.081  -2.303  0.00  0.00    -0.044 C 
ATOM     14  H12 non d   1      -1.767  -1.393  -3.079  0.00  0.00     0.028 H 
ATOM     15  H13 non d   1      -2.970  -1.614  -1.803  0.00  0.00     0.028 H 
ATOM     16  H14 non d   1      -2.472  -2.998  -2.784  0.00  0.00     0.028 H 
ENDBRANCH  11  13
BRANCH  11  17
ATOM     17  C10 non d   1       0.198  -3.053  -1.985  0.00  0.00    -0.044 C 
ATOM     18  H15 non d   1      -0.067  -4.054  -2.340  0.00  0.00     0.028 H 
ATOM     19  H16 non d   1       1.053  -3.148  -1.312  0.00  0.00     0.028 H 
ATOM     20  H17 non d   1       0.536  -2.461  -2.843  0.00  0.00     0.028 H 
ENDBRANCH  11  17
ENDBRANCH   7  10
ENDBRANCH   4   7
ENDBRANCH   1   4
BRANCH   1  21
ATOM     21  C6  non d   1       1.145  -1.585   3.896  0.00  0.00    -0.044 C 
ATOM     22  H7  non d   1       0.385  -0.831   4.130  0.00  0.00     0.028 H 
ATOM     23  H8  non d   1       1.898  -1.521   4.684  0.00  0.00     0.028 H 
ATOM     24  H9  non d   1       0.679  -2.573   3.952  0.00  0.00     0.028 H 
ENDBRANCH   1  21
BRANCH   2  25
ATOM     25  C8  non d   1       4.185  -1.560   3.134  0.00  0.00     0.065 C 
ATOM     26  H10 non d   1       4.710  -0.614   3.307  0.00  0.00     0.061 H 
ATOM     27  H11 non d   1       3.887  -1.990   4.093  0.00  0.00     0.061 H 
BRANCH  25  28
ATOM     28  O1  non d   1       5.059  -2.471   2.468  0.00  0.00    -0.378 OA
BRANCH  28  29
ATOM     29  C11 non d   1       6.215  -2.757   3.250  0.00  0.00     0.044 C 
ATOM     30  H18 non d   1       5.917  -3.210   4.202  0.00  0.00     0.056 H 
ATOM     31  H19 non d   1       6.766  -1.831   3.449  0.00  0.00     0.056 H 
BRANCH  29  32
ATOM     32  C12 non d   1       7.091  -3.720   2.474  0.00  0.00    -0.042 C 
ATOM     33  H20 non d   1       7.385  -3.286   1.513  0.00  0.00     0.025 H 
ATOM     34  H21 non d   1       7.994  -3.969   3.040  0.00  0.00     0.025 H 
ATOM     35  H22 non d   1       6.546  -4.644   2.253  0.00  0.00     0.025 H 
ENDBRANCH  29  32
ENDBRANCH  28  29
ENDBRANCH  25  28
ENDBRANCH   2  25
TORSDOF 10
