@<TRIPOS>MOLECULE
102443
 26 26 0 0 0
SMALL
USER_CHARGES

@<TRIPOS>ATOM
      1 C1         -2.0177   -3.2858   -1.4025 C.3     1  noname11   -0.0255
      2 C2         -1.9829   -2.4798   -0.0981 C.3     1  noname11   -0.0431
      3 C3         -1.3755   -1.0879   -0.2931 C.3     1  noname11   -0.0274
      4 C4          0.0145   -1.1392   -0.9126 C.2     1  noname11   -0.0615
      5 C5         -0.7298   -3.1356   -2.1644 C.2     1  noname11   -0.0741
      6 C6          0.1830   -2.1831   -1.9197 C.2     1  noname11   -0.0656
      7 C7         -3.2005   -2.8886   -2.2869 C.3     1  noname11   -0.0590
      8 C8          1.0055   -0.2760   -0.5751 C.2     1  noname11   -0.0657
      9 C9          0.8087    0.8871    0.3706 C.3     1  noname11   -0.0436
     10 C10         2.4255   -0.3451   -1.0897 C.3     1  noname11   -0.0436
     11 H1         -2.1379   -4.3440   -1.1374 H       1  noname11    0.0343
     12 H2         -2.9896   -2.3915    0.3276 H       1  noname11    0.0276
     13 H3         -1.3814   -3.0254    0.6423 H       1  noname11    0.0276
     14 H4         -2.0283   -0.4816   -0.9331 H       1  noname11    0.0316
     15 H5         -1.3576   -0.6112    0.6925 H       1  noname11    0.0316
     16 H6         -0.5371   -3.8587   -2.9537 H       1  noname11    0.0578
     17 H7          1.0800   -2.1804   -2.5312 H       1  noname11    0.0622
     18 H8         -4.1462   -3.0193   -1.7499 H       1  noname11    0.0236
     19 H9         -3.2419   -3.5129   -3.1867 H       1  noname11    0.0236
     20 H10        -3.1377   -1.8438   -2.6100 H       1  noname11    0.0236
     21 H11         1.2326    0.6511    1.3519 H       1  noname11    0.0276
     22 H12        -0.2384    1.1713    0.5000 H       1  noname11    0.0276
     23 H13         1.3159    1.7780   -0.0173 H       1  noname11    0.0276
     24 H14         2.6960   -1.3160   -1.5103 H       1  noname11    0.0276
     25 H15         3.1306   -0.1669   -0.2695 H       1  noname11    0.0276
     26 H16         2.5870    0.4232   -1.8526 H       1  noname11    0.0276
@<TRIPOS>BOND
     1     1     2    1
     2     1     5    1
     3     1     7    1
     4     1    11    1
     5     2     3    1
     6     2    12    1
     7     2    13    1
     8     3     4    1
     9     3    14    1
    10     3    15    1
    11     4     6    1
    12     4     8    2
    13     5     6    2
    14     5    16    1
    15     6    17    1
    16     7    18    1
    17     7    19    1
    18     7    20    1
    19     8     9    1
    20     8    10    1
    21     9    21    1
    22     9    22    1
    23     9    23    1
    24    10    24    1
    25    10    25    1
    26    10    26    1
