@<TRIPOS>MOLECULE
12343
 14 14 0 0 0
SMALL
USER_CHARGES

@<TRIPOS>ATOM
      1 C1          2.1435   -0.4529   -1.2449 C.3     1  noname11   -0.0169
      2 C2          0.4716    1.2720    0.5383 C.3     1  noname11   -0.0169
      3 C3         -0.0118   -0.0295   -0.0390 C.2     1  noname11   -0.0844
      4 C4          0.7388   -0.8039   -0.8396 C.2     1  noname11   -0.0844
      5 C5          1.8764    1.6229    0.1331 C.2     1  noname11   -0.0844
      6 C6          2.6270    0.8486   -0.6675 C.2     1  noname11   -0.0844
      7 H1          2.1937   -0.3964   -2.3380 H       1  noname11    0.0353
      8 H2          2.8166   -1.2554   -0.9230 H       1  noname11    0.0353
      9 H3         -0.2014    2.0745    0.2163 H       1  noname11    0.0353
     10 H4          0.4213    1.2155    1.6314 H       1  noname11    0.0353
     11 H5         -1.0211   -0.3390    0.2174 H       1  noname11    0.0575
     12 H6          2.2838    2.5532    0.5186 H       1  noname11    0.0575
     13 H7          0.3314   -1.7342   -1.2251 H       1  noname11    0.0575
     14 H8          3.6362    1.1581   -0.9239 H       1  noname11    0.0575
@<TRIPOS>BOND
     1     1     4    1
     2     1     6    1
     3     1     7    1
     4     1     8    1
     5     2     3    1
     6     2     5    1
     7     2     9    1
     8     2    10    1
     9     3     4    2
    10     3    11    1
    11     4    13    1
    12     5     6    2
    13     5    12    1
    14     6    14    1
