@<TRIPOS>MOLECULE
12302243
 35 36 0 0 0
SMALL
USER_CHARGES

@<TRIPOS>ATOM
      1 C1         -1.2995   -3.2551   -0.7025 C.3     1  noname1     0.0197
      2 C2         -0.0392   -4.1179   -0.3487 C.3     1  noname1    -0.0399
      3 C3         -1.9251   -3.7131   -2.0429 C.3     1  noname1    -0.0273
      4 C4         -1.1431   -1.7179   -0.6279 C.ar    1  noname1    -0.0465
      5 C5         -1.9571   -0.9061   -1.3714 C.ar    1  noname1    -0.0538
      6 C6         -2.9826   -2.7878   -2.5491 C.2     1  noname1    -0.0673
      7 C7         -3.0085   -1.4826   -2.2297 C.2     1  noname1    -0.0532
      8 C8          1.1467   -3.9044   -1.2971 C.3     1  noname1    -0.0622
      9 C9         -0.3662   -5.6161   -0.2759 C.3     1  noname1    -0.0622
     10 C10        -0.2121   -1.1433    0.1781 C.ar    1  noname1    -0.0646
     11 C11        -1.7947    0.4375   -1.2848 C.ar    1  noname1    -0.0533
     12 C12        -0.0608    0.1965    0.2614 C.ar    1  noname1    -0.0604
     13 C13        -4.1162   -0.6094   -2.7607 C.3     1  noname1    -0.0395
     14 C14        -0.8583    0.9823   -0.4878 C.ar    1  noname1    -0.0699
     15 C15         0.9962    0.7956    1.1488 C.3     1  noname1    -0.0025
     16 H1         -2.0447   -3.4863    0.0767 H       1  noname1     0.0358
     17 H2          0.2894   -3.8442    0.6613 H       1  noname1     0.0303
     18 H3         -2.3837   -4.6995   -1.9042 H       1  noname1     0.0316
     19 H4         -1.1697   -3.8191   -2.8288 H       1  noname1     0.0316
     20 H5         -3.7353   -3.2138   -3.2065 H       1  noname1     0.0579
     21 H6          1.4182   -2.8490   -1.3840 H       1  noname1     0.0233
     22 H7          0.9401   -4.2845   -2.3021 H       1  noname1     0.0233
     23 H8          2.0288   -4.4372   -0.9243 H       1  noname1     0.0233
     24 H9         -1.2247   -5.7969    0.3793 H       1  noname1     0.0233
     25 H10        -0.5890   -6.0358   -1.2619 H       1  noname1     0.0233
     26 H11         0.4849   -6.1728    0.1318 H       1  noname1     0.0233
     27 H12         0.4387   -1.7574    0.7917 H       1  noname1     0.0628
     28 H13        -2.4127    1.1200   -1.8595 H       1  noname1     0.0629
     29 H14        -3.7282    0.1209   -3.4786 H       1  noname1     0.0280
     30 H15        -4.8850   -1.1933   -3.2794 H       1  noname1     0.0280
     31 H16        -4.6175   -0.0780   -1.9444 H       1  noname1     0.0280
     32 H17        -0.7584    2.0639   -0.4506 H       1  noname1     0.0625
     33 H18         1.3042    1.7862    0.7959 H       1  noname1     0.0279
     34 H19         1.8975    0.1727    1.1687 H       1  noname1     0.0279
     35 H20         0.6204    0.8973    2.1722 H       1  noname1     0.0279
@<TRIPOS>BOND
     1     1     2    1
     2     1     3    1
     3     1     4    1
     4     1    16    1
     5     2     8    1
     6     2     9    1
     7     2    17    1
     8     3     6    1
     9     3    18    1
    10     3    19    1
    11     4     5   ar
    12     4    10   ar
    13     5     7    1
    14     5    11   ar
    15     6     7    2
    16     6    20    1
    17     7    13    1
    18     8    21    1
    19     8    22    1
    20     8    23    1
    21     9    24    1
    22     9    25    1
    23     9    26    1
    24    10    12   ar
    25    10    27    1
    26    11    14   ar
    27    11    28    1
    28    12    14   ar
    29    12    15    1
    30    13    29    1
    31    13    30    1
    32    13    31    1
    33    14    32    1
    34    15    33    1
    35    15    34    1
    36    15    35    1
