@<TRIPOS>MOLECULE
111037
 34 34 0 0 0
SMALL
USER_CHARGES

@<TRIPOS>ATOM
      1 O1          3.7636    2.0200    1.6950 O.3     1  noname11   -0.2034
      2 O2          4.0218   -0.2620    1.8869 O.2     1  noname11   -0.2549
      3 C1          2.5532    1.3575   -0.3709 C.3     1  noname11   -0.0083
      4 C2          2.4412    1.9891    1.0611 C.3     1  noname11    0.0755
      5 C3          1.2274    1.0776   -1.1042 C.3     1  noname11   -0.0437
      6 C4          3.5230    2.1094   -1.3100 C.3     1  noname11   -0.0292
      7 C5          0.5726    2.3013   -1.7447 C.3     1  noname11   -0.0319
      8 C6          1.5526    3.2645   -2.3621 C.2     1  noname11   -0.0800
      9 C7          2.8788    3.1567   -2.1722 C.2     1  noname11   -0.0824
     10 C8          2.0295    3.4713    1.0682 C.3     1  noname11   -0.0352
     11 C9          1.4501    1.2366    1.9679 C.3     1  noname11   -0.0352
     12 C10         0.9565    4.3523   -3.2086 C.3     1  noname11   -0.0439
     13 C11         4.4188    0.8824    2.0436 C.2     1  noname11    0.1401
     14 C12         5.7378    1.2338    2.6621 C.3     1  noname11    0.0221
     15 H1          3.0106    0.3702   -0.2259 H       1  noname11    0.0335
     16 H2          1.4440    0.3607   -1.9099 H       1  noname11    0.0274
     17 H3          0.5078    0.5675   -0.4556 H       1  noname11    0.0274
     18 H4          4.3376    2.5668   -0.7376 H       1  noname11    0.0313
     19 H5          3.9973    1.3838   -1.9839 H       1  noname11    0.0313
     20 H6         -0.0373    2.8297   -1.0049 H       1  noname11    0.0312
     21 H7         -0.1234    1.9485   -2.5163 H       1  noname11    0.0312
     22 H8          3.5558    3.8578   -2.6559 H       1  noname11    0.0575
     23 H9          1.0209    3.6335    0.6853 H       1  noname11    0.0260
     24 H10         2.7329    4.0915    0.5039 H       1  noname11    0.0260
     25 H11         2.0540    3.8662    2.0922 H       1  noname11    0.0260
     26 H12         1.5827    1.5262    3.0167 H       1  noname11    0.0260
     27 H13         0.4112    1.4403    1.6877 H       1  noname11    0.0260
     28 H14         1.5951    0.1531    1.9181 H       1  noname11    0.0260
     29 H15         0.4066    3.9204   -4.0510 H       1  noname11    0.0276
     30 H16         0.2647    4.9579   -2.6143 H       1  noname11    0.0276
     31 H17         1.7202    5.0225   -3.6168 H       1  noname11    0.0276
     32 H18         6.2603    0.3165    2.9482 H       1  noname11    0.0336
     33 H19         5.5778    1.8369    3.5594 H       1  noname11    0.0336
     34 H20         6.3535    1.7744    1.9389 H       1  noname11    0.0336
@<TRIPOS>BOND
     1     1     4    1
     2     1    13    1
     3     2    13    2
     4     3     4    1
     5     3     5    1
     6     3     6    1
     7     3    15    1
     8     4    10    1
     9     4    11    1
    10     5     7    1
    11     5    16    1
    12     5    17    1
    13     6     9    1
    14     6    18    1
    15     6    19    1
    16     7     8    1
    17     7    20    1
    18     7    21    1
    19     8     9    2
    20     8    12    1
    21     9    22    1
    22    10    23    1
    23    10    24    1
    24    10    25    1
    25    11    26    1
    26    11    27    1
    27    11    28    1
    28    12    29    1
    29    12    30    1
    30    12    31    1
    31    13    14    1
    32    14    32    1
    33    14    33    1
    34    14    34    1
