@<TRIPOS>MOLECULE
2758
 29 30 0 0 0
SMALL
USER_CHARGES

@<TRIPOS>ATOM
      1 O1          1.4748    1.4198   -0.1218 O.3     1  noname1    -0.3689
      2 C1          1.7660   -0.6877   -1.3561 C.3     1  noname1    -0.0124
      3 C2          1.9354    1.8635   -1.4145 C.3     1  noname1     0.0663
      4 C3          1.3542   -0.0147   -0.0138 C.3     1  noname1     0.0663
      5 C4          3.2097   -0.2827   -1.7110 C.3     1  noname1    -0.0450
      6 C5          0.8799   -0.1459   -2.4943 C.3     1  noname1    -0.0450
      7 C6          3.3228    1.2457   -1.6743 C.3     1  noname1    -0.0237
      8 C7          0.9288    1.3863   -2.4789 C.3     1  noname1    -0.0237
      9 C8          2.0121    3.3862   -1.3770 C.3     1  noname1    -0.0358
     10 C9         -0.1030   -0.3203    0.3644 C.3     1  noname1    -0.0358
     11 C10         2.2475   -0.4582    1.1547 C.3     1  noname1    -0.0358
     12 H1          1.6827   -1.7787   -1.2991 H       1  noname1     0.0332
     13 H2          3.4749   -0.6519   -2.7095 H       1  noname1     0.0271
     14 H3          3.9326   -0.7361   -1.0242 H       1  noname1     0.0271
     15 H4          1.2329   -0.5199   -3.4634 H       1  noname1     0.0271
     16 H5         -0.1534   -0.4963   -2.3983 H       1  noname1     0.0271
     17 H6          4.0159    1.5281   -0.8721 H       1  noname1     0.0296
     18 H7          3.7486    1.6116   -2.6160 H       1  noname1     0.0296
     19 H8          1.1971    1.7617   -3.4734 H       1  noname1     0.0296
     20 H9         -0.0731    1.7680   -2.2461 H       1  noname1     0.0296
     21 H10         1.0325    3.8196   -1.1459 H       1  noname1     0.0259
     22 H11         2.3571    3.7967   -2.3313 H       1  noname1     0.0259
     23 H12         2.6936    3.7222   -0.5873 H       1  noname1     0.0259
     24 H13        -0.8116    0.1307   -0.3373 H       1  noname1     0.0259
     25 H14        -0.3496    0.1111    1.3419 H       1  noname1     0.0259
     26 H15        -0.2873   -1.3986    0.4085 H       1  noname1     0.0259
     27 H16         3.2781   -0.1089    1.0378 H       1  noname1     0.0259
     28 H17         1.8991   -0.0210    2.0981 H       1  noname1     0.0259
     29 H18         2.2537   -1.5476    1.2626 H       1  noname1     0.0259
@<TRIPOS>BOND
     1     1     3    1
     2     1     4    1
     3     2     4    1
     4     2     5    1
     5     2     6    1
     6     2    12    1
     7     3     7    1
     8     3     8    1
     9     3     9    1
    10     4    10    1
    11     4    11    1
    12     5     7    1
    13     5    13    1
    14     5    14    1
    15     6     8    1
    16     6    15    1
    17     6    16    1
    18     7    17    1
    19     7    18    1
    20     8    19    1
    21     8    20    1
    22     9    21    1
    23     9    22    1
    24     9    23    1
    25    10    24    1
    26    10    25    1
    27    10    26    1
    28    11    27    1
    29    11    28    1
    30    11    29    1
