@<TRIPOS>MOLECULE
28237
 39 40 0 0 0
SMALL
USER_CHARGES

@<TRIPOS>ATOM
      1 C1          3.5628    1.2171    0.3581 C.3     1  noname11   -0.0259
      2 C2          2.0546    1.2984   -0.0376 C.3     1  noname11   -0.0146
      3 C3          4.2647    2.5382   -0.0475 C.3     1  noname11   -0.0467
      4 C4          1.3681    2.5382    0.5726 C.3     1  noname11   -0.0396
      5 C5          4.2252    0.0453   -0.4203 C.3     1  noname11   -0.0470
      6 C6          2.0900    3.8342    0.1575 C.3     1  noname11   -0.0202
      7 C7          3.5837    3.7882    0.5162 C.3     1  noname11   -0.0461
      8 C8          1.3681   -0.0403    0.2079 C.2     1  noname11   -0.0826
      9 C9          3.5006   -1.2927   -0.2376 C.3     1  noname11   -0.0490
     10 C10         3.7600    0.9850    1.8772 C.3     1  noname11   -0.0591
     11 C11         2.0065   -1.1885   -0.5421 C.3     1  noname11   -0.0319
     12 C12         1.4049    5.0793    0.7085 C.2     1  noname11   -0.0851
     13 C13         0.3022   -0.2389    1.0006 C.2     1  noname11   -0.0905
     14 C14         1.3188    5.2547    2.2016 C.3     1  noname11   -0.0439
     15 C15         0.8852    6.0039   -0.1180 C.2     1  noname11   -0.0920
     16 H1          2.0091    1.4477   -1.1286 H       1  noname11    0.0354
     17 H2          5.3136    2.5245    0.2745 H       1  noname11    0.0272
     18 H3          4.2817    2.6225   -1.1424 H       1  noname11    0.0272
     19 H4          1.3328    2.4510    1.6645 H       1  noname11    0.0279
     20 H5          0.3264    2.5874    0.2281 H       1  noname11    0.0279
     21 H6          5.2735   -0.0682   -0.1169 H       1  noname11    0.0272
     22 H7          4.2392    0.2819   -1.4928 H       1  noname11    0.0272
     23 H8          2.0371    3.8801   -0.9408 H       1  noname11    0.0348
     24 H9          3.7267    3.8206    1.6017 H       1  noname11    0.0273
     25 H10         4.0879    4.6767    0.1154 H       1  noname11    0.0273
     26 H11         3.6451   -1.6594    0.7855 H       1  noname11    0.0270
     27 H12         3.9535   -2.0415   -0.8983 H       1  noname11    0.0270
     28 H13         3.3464    1.7966    2.4821 H       1  noname11    0.0236
     29 H14         4.8264    0.9128    2.1207 H       1  noname11    0.0236
     30 H15         3.2855    0.0622    2.2240 H       1  noname11    0.0236
     31 H16         1.5243   -2.1435   -0.3015 H       1  noname11    0.0312
     32 H17         1.8628   -1.0279   -1.6181 H       1  noname11    0.0312
     33 H18        -0.1320   -1.2269    1.1250 H       1  noname11    0.0537
     34 H19        -0.1729    0.5653    1.5518 H       1  noname11    0.0537
     35 H20         0.7535    4.4375    2.6587 H       1  noname11    0.0276
     36 H21         2.3159    5.2867    2.6497 H       1  noname11    0.0276
     37 H22         0.8132    6.1880    2.4734 H       1  noname11    0.0276
     38 H23         0.3936    6.8951    0.2607 H       1  noname11    0.0537
     39 H24         0.9350    5.8977   -1.1976 H       1  noname11    0.0537
@<TRIPOS>BOND
     1     1     2    1
     2     1     3    1
     3     1     5    1
     4     1    10    1
     5     2     4    1
     6     2     8    1
     7     2    16    1
     8     3     7    1
     9     3    17    1
    10     3    18    1
    11     4     6    1
    12     4    19    1
    13     4    20    1
    14     5     9    1
    15     5    21    1
    16     5    22    1
    17     6     7    1
    18     6    12    1
    19     6    23    1
    20     7    24    1
    21     7    25    1
    22     8    11    1
    23     8    13    2
    24     9    11    1
    25     9    26    1
    26     9    27    1
    27    10    28    1
    28    10    29    1
    29    10    30    1
    30    11    31    1
    31    11    32    1
    32    12    14    1
    33    12    15    2
    34    13    33    1
    35    13    34    1
    36    14    35    1
    37    14    36    1
    38    14    37    1
    39    15    38    1
    40    15    39    1
