@<TRIPOS>MOLECULE
11106487
 39 39 0 0 0
SMALL
USER_CHARGES

@<TRIPOS>ATOM
      1 C1          2.0536   -5.8901   -1.2076 C.3     1  noname1    -0.0201
      2 C2          1.5246   -4.6712   -2.0307 C.3     1  noname1    -0.0376
      3 C3          0.9745   -6.5545   -0.3216 C.3     1  noname1    -0.0426
      4 C4          1.0637   -3.4831   -1.1583 C.3     1  noname1    -0.0466
      5 C5          0.9670   -6.0747    1.1320 C.3     1  noname1    -0.0279
      6 C6          3.3225   -5.6064   -0.4365 C.2     1  noname1    -0.0743
      7 C7          2.5587   -4.2389   -3.0835 C.3     1  noname1    -0.0619
      8 C8          0.5619   -2.2764   -1.9602 C.3     1  noname1    -0.0345
      9 C9          2.3411   -6.0883    1.7516 C.2     1  noname1    -0.0706
     10 C10         3.4468   -5.7238    0.8929 C.2     1  noname1    -0.0683
     11 C11        -0.0459   -1.2382   -1.0560 C.2     1  noname1    -0.0839
     12 C12         2.5376   -6.4077    3.0395 C.2     1  noname1    -0.0821
     13 C13         0.5144   -0.0884   -0.6322 C.2     1  noname1    -0.0822
     14 C14        -0.2534    0.8603    0.2508 C.3     1  noname1    -0.0442
     15 C15         1.9123    0.3614   -0.9560 C.3     1  noname1    -0.0442
     16 H1          2.3216   -6.6538   -1.9534 H       1  noname1     0.0349
     17 H2          0.6462   -5.0244   -2.5894 H       1  noname1     0.0306
     18 H3         -0.0220   -6.4291   -0.7615 H       1  noname1     0.0276
     19 H4          1.1628   -7.6379   -0.3141 H       1  noname1     0.0276
     20 H5          0.2442   -3.8190   -0.5147 H       1  noname1     0.0272
     21 H6          1.8796   -3.1607   -0.4997 H       1  noname1     0.0272
     22 H7          0.5693   -5.0569    1.1954 H       1  noname1     0.0316
     23 H8          0.2782   -6.7085    1.7047 H       1  noname1     0.0316
     24 H9          4.2037   -5.3368   -1.0140 H       1  noname1     0.0579
     25 H10         2.9644   -5.1059   -3.6158 H       1  noname1     0.0233
     26 H11         3.3926   -3.6927   -2.6307 H       1  noname1     0.0233
     27 H12         2.1027   -3.5909   -3.8389 H       1  noname1     0.0233
     28 H13        -0.2081   -2.5987   -2.6721 H       1  noname1     0.0310
     29 H14         1.3674   -1.8454   -2.5610 H       1  noname1     0.0310
     30 H15         4.4177   -5.5524    1.3523 H       1  noname1     0.0622
     31 H16        -1.0624   -1.4685   -0.7369 H       1  noname1     0.0575
     32 H17         1.7071   -6.6737    3.6860 H       1  noname1     0.0540
     33 H18         3.5269   -6.4138    3.4862 H       1  noname1     0.0540
     34 H19        -1.2672    0.5041    0.4619 H       1  noname1     0.0276
     35 H20        -0.3393    1.8397   -0.2311 H       1  noname1     0.0276
     36 H21         0.2605    0.9872    1.2092 H       1  noname1     0.0276
     37 H22         1.8832    1.2582   -1.5832 H       1  noname1     0.0276
     38 H23         2.5021   -0.3962   -1.4773 H       1  noname1     0.0276
     39 H24         2.4523    0.6031   -0.0341 H       1  noname1     0.0276
@<TRIPOS>BOND
     1     1     2    1
     2     1     3    1
     3     1     6    1
     4     1    16    1
     5     2     4    1
     6     2     7    1
     7     2    17    1
     8     3     5    1
     9     3    18    1
    10     3    19    1
    11     4     8    1
    12     4    20    1
    13     4    21    1
    14     5     9    1
    15     5    22    1
    16     5    23    1
    17     6    10    2
    18     6    24    1
    19     7    25    1
    20     7    26    1
    21     7    27    1
    22     8    11    1
    23     8    28    1
    24     8    29    1
    25     9    10    1
    26     9    12    2
    27    10    30    1
    28    11    13    2
    29    11    31    1
    30    12    32    1
    31    12    33    1
    32    13    14    1
    33    13    15    1
    34    14    34    1
    35    14    35    1
    36    14    36    1
    37    15    37    1
    38    15    38    1
    39    15    39    1
