@<TRIPOS>MOLECULE
440967
 26 27 0 0 0
SMALL
USER_CHARGES

@<TRIPOS>ATOM
      1 C1          3.0829    1.2951    0.9543 C.3     1  noname1    -0.0260
      2 C2          3.8371    0.3316   -0.0586 C.3     1  noname1    -0.0348
      3 C3          1.9341    1.2518   -0.1422 C.3     1  noname1    -0.0149
      4 C4          3.0928    1.1044   -1.1917 C.3     1  noname1    -0.0428
      5 C5          3.3946   -1.1434   -0.0195 C.3     1  noname1    -0.0461
      6 C6          1.1187   -0.0101   -0.0766 C.2     1  noname1    -0.0826
      7 C7          1.8851   -1.2914   -0.3173 C.3     1  noname1    -0.0317
      8 C8          3.7378    2.6766    1.1463 C.3     1  noname1    -0.0591
      9 C9          2.7623    0.7340    2.3456 C.3     1  noname1    -0.0591
     10 C10        -0.1817    0.0473    0.2384 C.2     1  noname1    -0.0905
     11 H1          4.9275    0.4320   -0.0628 H       1  noname1     0.0308
     12 H2          1.3391    2.1650   -0.2473 H       1  noname1     0.0354
     13 H3          3.5597    2.0431   -1.5081 H       1  noname1     0.0276
     14 H4          2.8701    0.5445   -2.1064 H       1  noname1     0.0276
     15 H5          3.6340   -1.5786    0.9574 H       1  noname1     0.0273
     16 H6          3.9618   -1.7216   -0.7589 H       1  noname1     0.0273
     17 H7          1.4745   -2.1221    0.2680 H       1  noname1     0.0312
     18 H8          1.7652   -1.5617   -1.3744 H       1  noname1     0.0312
     19 H9          3.0575    3.3523    1.6767 H       1  noname1     0.0236
     20 H10         4.6552    2.5868    1.7386 H       1  noname1     0.0236
     21 H11         4.0080    3.1656    0.2070 H       1  noname1     0.0236
     22 H12         2.0835    1.4048    2.8841 H       1  noname1     0.0236
     23 H13         3.6776    0.6328    2.9394 H       1  noname1     0.0236
     24 H14         2.2867   -0.2496    2.3218 H       1  noname1     0.0236
     25 H15        -0.7805   -0.8552    0.3145 H       1  noname1     0.0537
     26 H16        -0.6836    0.9910    0.4284 H       1  noname1     0.0537
@<TRIPOS>BOND
     1     1     2    1
     2     1     3    1
     3     1     8    1
     4     1     9    1
     5     2     4    1
     6     2     5    1
     7     2    11    1
     8     3     4    1
     9     3     6    1
    10     3    12    1
    11     4    13    1
    12     4    14    1
    13     5     7    1
    14     5    15    1
    15     5    16    1
    16     6     7    1
    17     6    10    2
    18     7    17    1
    19     7    18    1
    20     8    19    1
    21     8    20    1
    22     8    21    1
    23     9    22    1
    24     9    23    1
    25     9    24    1
    26    10    25    1
    27    10    26    1
