REMARK  4 active torsions:
REMARK  status: ('A' for Active; 'I' for Inactive)
REMARK    1  A    between atoms: C1_1  and  C5_5 
REMARK    2  A    between atoms: C1_1  and  C6_6 
REMARK    3  A    between atoms: C9_9  and  C13_13 
REMARK    4  A    between atoms: C10_10  and  C15_15 
ROOT
ATOM      1  C1  non d   1       8.415   1.736   0.000  0.00  0.00    -0.025 C 
ATOM      2  C2  non d   1       8.415   0.195   0.000  0.00  0.00    -0.029 A 
ATOM      3  C3  non d   1       7.081   0.965   0.000  0.00  0.00    -0.014 A 
ATOM      4  C4  non d   1       8.415  -1.345   0.000  0.00  0.00    -0.046 A 
ATOM      5  C7  non d   1       5.747   0.195   0.000  0.00  0.00    -0.080 A 
ATOM      6  C8  non d   1       7.081  -2.115   0.000  0.00  0.00    -0.032 A 
ATOM      7  C9  non d   1       4.414   0.965   0.000  0.00  0.00    -0.078 A 
ATOM      8  C10 non d   1       5.747  -1.345   0.000  0.00  0.00    -0.080 A 
ATOM      9  C11 non d   1       3.080   0.195   0.000  0.00  0.00    -0.029 A 
ATOM     10  C12 non d   1       3.080  -1.345   0.000  0.00  0.00    -0.031 A 
ATOM     11  C14 non d   1       4.414  -2.115   0.000  0.00  0.00    -0.082 A 
ATOM     12  H1  non d   1       9.370   0.195   0.000  0.00  0.00     0.031 H 
ATOM     13  H2  non d   1       6.604   1.792   0.000  0.00  0.00     0.035 H 
ATOM     14  H3  non d   1       8.742  -2.242   0.000  0.00  0.00     0.027 H 
ATOM     15  H4  non d   1       9.355  -1.179   0.000  0.00  0.00     0.027 H 
ATOM     16  H11 non d   1       6.361  -0.536   0.000  0.00  0.00     0.058 H 
ATOM     17  H12 non d   1       6.468  -2.846   0.000  0.00  0.00     0.031 H 
ATOM     18  H13 non d   1       7.695  -2.846   0.000  0.00  0.00     0.031 H 
ATOM     19  H14 non d   1       2.754   1.093   0.000  0.00  0.00     0.032 H 
ATOM     20  H15 non d   1       2.140   0.029   0.000  0.00  0.00     0.032 H 
ATOM     21  H16 non d   1       2.140  -1.179   0.000  0.00  0.00     0.031 H 
ATOM     22  H17 non d   1       2.754  -2.242   0.000  0.00  0.00     0.031 H 
ATOM     23  H21 non d   1       4.414  -3.070   0.000  0.00  0.00     0.058 H 
ENDROOT
BRANCH   1  24
ATOM     24  C5  non d   1       9.955   1.736   0.000  0.00  0.00    -0.059 C 
ATOM     25  H5  non d   1       9.955   0.781   0.000  0.00  0.00     0.024 H 
ATOM     26  H6  non d   1      10.910   1.736   0.000  0.00  0.00     0.024 H 
ATOM     27  H7  non d   1       9.955   2.691   0.000  0.00  0.00     0.024 H 
ENDBRANCH   1  24
BRANCH   1  28
ATOM     28  C6  non d   1       7.645   3.070   0.000  0.00  0.00    -0.059 C 
ATOM     29  H8  non d   1       8.472   3.547   0.000  0.00  0.00     0.024 H 
ATOM     30  H9  non d   1       7.168   3.897   0.000  0.00  0.00     0.024 H 
ATOM     31  H10 non d   1       6.818   2.592   0.000  0.00  0.00     0.024 H 
ENDBRANCH   1  28
BRANCH   7  32
ATOM     32  C13 non d   1       4.414   2.505   0.000  0.00  0.00    -0.044 C 
ATOM     33  H18 non d   1       5.369   2.505   0.000  0.00  0.00     0.028 H 
ATOM     34  H19 non d   1       4.414   3.460   0.000  0.00  0.00     0.028 H 
ATOM     35  H20 non d   1       3.459   2.505   0.000  0.00  0.00     0.028 H 
ENDBRANCH   7  32
BRANCH   8  36
ATOM     36  C15 non d   1       5.333   1.006   0.000  0.00  0.00    -0.044 C 
ATOM     37  H22 non d   1       6.273   1.172   0.000  0.00  0.00     0.028 H 
ATOM     38  H23 non d   1       5.167   1.946   0.000  0.00  0.00     0.028 H 
ATOM     39  H24 non d   1       4.393   0.840   0.000  0.00  0.00     0.028 H 
ENDBRANCH   8  36
TORSDOF 4
