REMARK  3 active torsions:
REMARK  status: ('A' for Active; 'I' for Inactive)
REMARK    1  A    between atoms: C1_1  and  C6_6 
REMARK    2  A    between atoms: C5_5  and  C8_8 
REMARK    3  A    between atoms: C6_6  and  C9_9 
ROOT
ATOM      1  C1  non d   1      -0.451  -0.298   2.288  0.00  0.00    -0.017 C 
ATOM      2  C2  non d   1       0.317   0.859   2.946  0.00  0.00    -0.043 C 
ATOM      3  C3  non d   1      -0.696   0.003   0.793  0.00  0.00    -0.026 C 
ATOM      4  C4  non d   1       1.667   1.078   2.259  0.00  0.00    -0.034 C 
ATOM      5  C5  non d   1       0.520   0.561   0.085  0.00  0.00    -0.080 C 
ATOM      6  C7  non d   1       1.585   1.028   0.761  0.00  0.00    -0.082 C 
ATOM      7  H1  non d   1       0.211  -1.177   2.331  0.00  0.00     0.035 H 
ATOM      8  H2  non d   1       0.481   0.661   4.012  0.00  0.00     0.028 H 
ATOM      9  H3  non d   1      -0.267   1.786   2.881  0.00  0.00     0.028 H 
ATOM     10  H4  non d   1      -1.513   0.723   0.667  0.00  0.00     0.032 H 
ATOM     11  H5  non d   1      -1.010  -0.925   0.299  0.00  0.00     0.032 H 
ATOM     12  H6  non d   1       2.069   2.049   2.568  0.00  0.00     0.031 H 
ATOM     13  H7  non d   1       2.380   0.315   2.591  0.00  0.00     0.031 H 
ATOM     14  H8  non d   1       2.451   1.405   0.220  0.00  0.00     0.058 H 
ENDROOT
BRANCH   1  15
ATOM     15  C6  non d   1      -1.738  -0.646   3.030  0.00  0.00    -0.085 C 
ATOM     16  C10 non d   1      -1.953  -1.891   3.492  0.00  0.00    -0.092 C 
ATOM     17  H15 non d   1      -2.862  -2.152   4.024  0.00  0.00     0.054 H 
ATOM     18  H16 non d   1      -1.226  -2.685   3.352  0.00  0.00     0.054 H 
BRANCH  15  19
ATOM     19  C9  non d   1      -2.762   0.436   3.242  0.00  0.00    -0.044 C 
ATOM     20  H12 non d   1      -2.352   1.244   3.856  0.00  0.00     0.028 H 
ATOM     21  H13 non d   1      -3.095   0.855   2.288  0.00  0.00     0.028 H 
ATOM     22  H14 non d   1      -3.653   0.059   3.757  0.00  0.00     0.028 H 
ENDBRANCH  15  19
ENDBRANCH   1  15
BRANCH   5  23
ATOM     23  C8  non d   1       0.462   0.563  -1.415  0.00  0.00    -0.044 C 
ATOM     24  H9  non d   1       0.359  -0.459  -1.793  0.00  0.00     0.028 H 
ATOM     25  H10 non d   1       1.364   0.995  -1.861  0.00  0.00     0.028 H 
ATOM     26  H11 non d   1      -0.395   1.151  -1.760  0.00  0.00     0.028 H 
ENDBRANCH   5  23
TORSDOF 3
