REMARK  4 active torsions:
REMARK  status: ('A' for Active; 'I' for Inactive)
REMARK    1  A    between atoms: C2_2  and  C5_5 
REMARK    2  A    between atoms: C5_5  and  C12_12 
REMARK    3  A    between atoms: C5_5  and  C13_13 
REMARK    4  A    between atoms: C11_11  and  C15_15 
ROOT
ATOM      1  C1  non d   1      -1.812   1.077   1.431  0.00  0.00    -0.013 C 
ATOM      2  C2  non d   1      -3.321   0.738   1.206  0.00  0.00    -0.032 C 
ATOM      3  C3  non d   1      -1.481   2.576   1.217  0.00  0.00    -0.014 C 
ATOM      4  C4  non d   1      -4.217   1.712   2.010  0.00  0.00    -0.046 C 
ATOM      5  C6  non d   1       0.035   2.793   1.348  0.00  0.00    -0.042 C 
ATOM      6  C7  non d   1      -2.363   3.408   2.134  0.00  0.00    -0.083 C 
ATOM      7  C8  non d   1      -3.838   3.192   1.901  0.00  0.00    -0.032 C 
ATOM      8  C9  non d   1      -0.866   0.157   0.693  0.00  0.00    -0.080 C 
ATOM      9  C10 non d   1       0.797   1.977   0.298  0.00  0.00    -0.032 C 
ATOM     10  C11 non d   1       0.303   0.558   0.161  0.00  0.00    -0.079 C 
ATOM     11  C14 non d   1      -1.928   4.258   3.079  0.00  0.00    -0.090 C 
ATOM     12  H1  non d   1      -1.626   0.862   2.496  0.00  0.00     0.035 H 
ATOM     13  H2  non d   1      -3.454  -0.241   1.694  0.00  0.00     0.031 H 
ATOM     14  H3  non d   1      -1.734   2.867   0.191  0.00  0.00     0.035 H 
ATOM     15  H4  non d   1      -5.272   1.586   1.743  0.00  0.00     0.027 H 
ATOM     16  H5  non d   1      -4.145   1.429   3.069  0.00  0.00     0.027 H 
ATOM     17  H7  non d   1       0.374   2.498   2.350  0.00  0.00     0.028 H 
ATOM     18  H8  non d   1       0.290   3.852   1.221  0.00  0.00     0.028 H 
ATOM     19  H9  non d   1      -4.100   3.589   0.916  0.00  0.00     0.031 H 
ATOM     20  H10 non d   1      -4.440   3.759   2.623  0.00  0.00     0.031 H 
ATOM     21  H11 non d   1      -1.161  -0.888   0.615  0.00  0.00     0.058 H 
ATOM     22  H12 non d   1       1.860   1.976   0.568  0.00  0.00     0.031 H 
ATOM     23  H13 non d   1       0.712   2.470  -0.678  0.00  0.00     0.031 H 
ATOM     24  H20 non d   1      -2.623   4.817   3.699  0.00  0.00     0.054 H 
ATOM     25  H21 non d   1      -0.874   4.427   3.272  0.00  0.00     0.054 H 
ENDROOT
BRANCH   2  26
ATOM     26  C5  non d   1      -3.775   0.498  -0.273  0.00  0.00    -0.044 C 
ATOM     27  H6  non d   1      -2.987  -0.061  -0.793  0.00  0.00     0.030 H 
BRANCH  26  28
ATOM     28  C12 non d   1      -4.065   1.741  -1.113  0.00  0.00    -0.062 C 
ATOM     29  H14 non d   1      -3.203   2.403  -1.181  0.00  0.00     0.023 H 
ATOM     30  H15 non d   1      -4.919   2.304  -0.725  0.00  0.00     0.023 H 
ATOM     31  H16 non d   1      -4.317   1.451  -2.140  0.00  0.00     0.023 H 
ENDBRANCH  26  28
BRANCH  26  32
ATOM     32  C13 non d   1      -5.018  -0.409  -0.310  0.00  0.00    -0.062 C 
ATOM     33  H17 non d   1      -4.834  -1.348   0.221  0.00  0.00     0.023 H 
ATOM     34  H18 non d   1      -5.889   0.075   0.143  0.00  0.00     0.023 H 
ATOM     35  H19 non d   1      -5.279  -0.664  -1.343  0.00  0.00     0.023 H 
ENDBRANCH  26  32
ENDBRANCH   2  26
BRANCH  10  36
ATOM     36  C15 non d   1       1.200  -0.380  -0.593  0.00  0.00    -0.044 C 
ATOM     37  H22 non d   1       0.776  -1.387  -0.664  0.00  0.00     0.028 H 
ATOM     38  H23 non d   1       2.171  -0.461  -0.093  0.00  0.00     0.028 H 
ATOM     39  H24 non d   1       1.361  -0.013  -1.611  0.00  0.00     0.028 H 
ENDBRANCH  10  36
TORSDOF 4
