@<TRIPOS>MOLECULE
440917
 26 26 0 0 0
SMALL
USER_CHARGES

@<TRIPOS>ATOM
      1 C1          0.8379    0.9668    2.7721 C.3     1  noname1    -0.0171
      2 C2          0.4758    2.1531    1.8656 C.3     1  noname1    -0.0427
      3 C3          0.1029   -0.3047    2.3003 C.3     1  noname1    -0.0282
      4 C4          0.8602    1.8705    0.4092 C.3     1  noname1    -0.0317
      5 C5          0.4904    0.4824   -0.0551 C.2     1  noname1    -0.0799
      6 C6          0.1348   -0.4863    0.8075 C.2     1  noname1    -0.0823
      7 C7          0.6025    1.2602    4.2498 C.2     1  noname1    -0.0849
      8 C8          0.5462    0.2489   -1.5372 C.3     1  noname1    -0.0439
      9 C9         -0.7714    1.6936    4.6877 C.3     1  noname1    -0.0439
     10 C10         1.5995    1.1426    5.1443 C.2     1  noname1    -0.0919
     11 H1          1.9143    0.7832    2.6311 H       1  noname1     0.0351
     12 H2         -0.6033    2.3503    1.9126 H       1  noname1     0.0276
     13 H3          0.9805    3.0671    2.2020 H       1  noname1     0.0276
     14 H4         -0.9484   -0.2963    2.6101 H       1  noname1     0.0316
     15 H5          0.5656   -1.1803    2.7725 H       1  noname1     0.0316
     16 H6          0.3725    2.6184   -0.2275 H       1  noname1     0.0312
     17 H7          1.9427    2.0002    0.2869 H       1  noname1     0.0312
     18 H8         -0.1450   -1.4707    0.4388 H       1  noname1     0.0575
     19 H9          0.2821   -0.7802   -1.8024 H       1  noname1     0.0276
     20 H10         1.5562    0.4417   -1.9131 H       1  noname1     0.0276
     21 H11        -0.1513    0.9163   -2.0536 H       1  noname1     0.0276
     22 H12        -1.0461    2.6435    4.2195 H       1  noname1     0.0276
     23 H13        -1.5219    0.9427    4.4256 H       1  noname1     0.0276
     24 H14        -0.8260    1.8397    5.7722 H       1  noname1     0.0276
     25 H15         1.4472    1.3517    6.1990 H       1  noname1     0.0537
     26 H16         2.5979    0.8336    4.8489 H       1  noname1     0.0537
@<TRIPOS>BOND
     1     1     2    1
     2     1     3    1
     3     1     7    1
     4     1    11    1
     5     2     4    1
     6     2    12    1
     7     2    13    1
     8     3     6    1
     9     3    14    1
    10     3    15    1
    11     4     5    1
    12     4    16    1
    13     4    17    1
    14     5     6    2
    15     5     8    1
    16     6    18    1
    17     7     9    1
    18     7    10    2
    19     8    19    1
    20     8    20    1
    21     8    21    1
    22     9    22    1
    23     9    23    1
    24     9    24    1
    25    10    25    1
    26    10    26    1
