@<TRIPOS>MOLECULE
240122
 47 48 0 0 0
SMALL
USER_CHARGES

@<TRIPOS>ATOM
      1 O1         -0.7646   -0.7003  -11.6747 O.3     1  noname1    -0.2034
      2 O2          1.1924   -0.5793  -12.8866 O.2     1  noname1    -0.2549
      3 C1          0.2854   -2.8613  -10.9689 C.3     1  noname1    -0.0083
      4 C2          1.6337   -4.8952  -10.1245 C.2     1  noname1    -0.0676
      5 C3          1.3275   -5.8864  -10.9762 C.2     1  noname1    -0.0677
      6 C4          0.8446   -3.6694   -9.7779 C.3     1  noname1    -0.0259
      7 C5          2.9352   -5.1692   -9.4074 C.3     1  noname1    -0.0225
      8 C6          0.1066   -6.0663  -11.8280 C.3     1  noname1    -0.0228
      9 C7         -0.8367   -3.6321  -11.7043 C.3     1  noname1    -0.0468
     10 C8         -0.3425   -4.7964  -12.5641 C.3     1  noname1    -0.0466
     11 C9          2.3777   -6.9610  -10.9638 C.3     1  noname1    -0.0309
     12 C10         3.5480   -6.2894  -10.2539 C.3     1  noname1    -0.0432
     13 C11        -0.1931   -1.4227  -10.5398 C.3     1  noname1     0.0755
     14 C12         2.7149   -5.5971   -7.9591 C.3     1  noname1    -0.0587
     15 C13        -1.0238   -6.7070  -11.0179 C.3     1  noname1    -0.0587
     16 C14        -1.3509   -1.4835   -9.5247 C.3     1  noname1    -0.0352
     17 C15         0.9273   -0.5699   -9.9136 C.3     1  noname1    -0.0352
     18 C16        -0.0000   -0.3568  -12.7448 C.2     1  noname1     0.1401
     19 C17        -0.8466    0.3519  -13.7581 C.3     1  noname1     0.0221
     20 H1          1.1044   -2.7271  -11.6871 H       1  noname1     0.0335
     21 H2          0.0361   -3.9636   -9.0977 H       1  noname1     0.0316
     22 H3          1.5065   -3.0219   -9.1935 H       1  noname1     0.0316
     23 H4          3.5910   -4.2913   -9.4352 H       1  noname1     0.0346
     24 H5          0.3669   -6.7808  -12.6220 H       1  noname1     0.0346
     25 H6         -1.5971   -3.9768  -10.9955 H       1  noname1     0.0271
     26 H7         -1.3556   -2.9508  -12.3887 H       1  noname1     0.0271
     27 H8         -1.1608   -5.0765  -13.2418 H       1  noname1     0.0272
     28 H9          0.4701   -4.4452  -13.2139 H       1  noname1     0.0272
     29 H10         2.0212   -7.8354  -10.4088 H       1  noname1     0.0313
     30 H11         2.6667   -7.2723  -11.9724 H       1  noname1     0.0313
     31 H12         4.1392   -7.0032   -9.6705 H       1  noname1     0.0276
     32 H13         4.2218   -5.8520  -11.0032 H       1  noname1     0.0276
     33 H14         2.0640   -6.4758   -7.8885 H       1  noname1     0.0236
     34 H15         3.6693   -5.8472   -7.4837 H       1  noname1     0.0236
     35 H16         2.2539   -4.7914   -7.3778 H       1  noname1     0.0236
     36 H17        -1.9147   -6.8489  -11.6389 H       1  noname1     0.0236
     37 H18        -1.3070   -6.0999  -10.1517 H       1  noname1     0.0236
     38 H19        -0.7229   -7.6920  -10.6430 H       1  noname1     0.0236
     39 H20        -1.0635   -1.9821   -8.5945 H       1  noname1     0.0260
     40 H21        -2.2246   -1.9950   -9.9420 H       1  noname1     0.0260
     41 H22        -1.6920   -0.4720   -9.2718 H       1  noname1     0.0260
     42 H23         1.8545   -0.6342  -10.4915 H       1  noname1     0.0260
     43 H24         0.6420    0.4882   -9.8871 H       1  noname1     0.0260
     44 H25         1.1576   -0.8795   -8.8892 H       1  noname1     0.0260
     45 H26        -1.6420   -0.3122  -14.1056 H       1  noname1     0.0336
     46 H27        -1.2669    1.2606  -13.3199 H       1  noname1     0.0336
     47 H28        -0.2278    0.6328  -14.6151 H       1  noname1     0.0336
@<TRIPOS>BOND
     1     1    13    1
     2     1    18    1
     3     2    18    2
     4     3     6    1
     5     3     9    1
     6     3    13    1
     7     3    20    1
     8     4     5    2
     9     4     6    1
    10     4     7    1
    11     5     8    1
    12     5    11    1
    13     6    21    1
    14     6    22    1
    15     7    12    1
    16     7    14    1
    17     7    23    1
    18     8    10    1
    19     8    15    1
    20     8    24    1
    21     9    10    1
    22     9    25    1
    23     9    26    1
    24    10    27    1
    25    10    28    1
    26    11    12    1
    27    11    29    1
    28    11    30    1
    29    12    31    1
    30    12    32    1
    31    13    16    1
    32    13    17    1
    33    14    33    1
    34    14    34    1
    35    14    35    1
    36    15    36    1
    37    15    37    1
    38    15    38    1
    39    16    39    1
    40    16    40    1
    41    16    41    1
    42    17    42    1
    43    17    43    1
    44    17    44    1
    45    18    19    1
    46    19    45    1
    47    19    46    1
    48    19    47    1
