@<TRIPOS>MOLECULE
7461
 26 26 0 0 0
SMALL
USER_CHARGES

@<TRIPOS>ATOM
      1 C1         -0.6266   -1.4819   -1.2325 C.3     1  noname1    -0.0256
      2 C2         -0.8695   -1.2935    0.2588 C.2     1  noname1    -0.0721
      3 C3         -2.0468   -2.0121    0.8862 C.3     1  noname1    -0.0133
      4 C4         -0.2188   -0.2648    2.4697 C.3     1  noname1    -0.0138
      5 C5         -0.0574   -0.5088    0.9955 C.2     1  noname1    -0.0761
      6 C6         -1.3920   -0.9832    3.0879 C.2     1  noname1    -0.0759
      7 C7         -2.2081   -1.7678    2.3615 C.2     1  noname1    -0.0784
      8 C8         -1.7907   -0.9565   -2.0755 C.3     1  noname1    -0.0590
      9 C9         -0.3183   -2.9388   -1.5851 C.3     1  noname1    -0.0590
     10 C10        -1.5909   -0.7681    4.5595 C.3     1  noname1    -0.0436
     11 H1          0.2577   -0.8961   -1.5198 H       1  noname1     0.0343
     12 H2         -2.9731   -1.6977    0.3929 H       1  noname1     0.0356
     13 H3         -1.9386   -3.0920    0.7369 H       1  noname1     0.0356
     14 H4         -0.3327    0.8138    2.6302 H       1  noname1     0.0355
     15 H5          0.7023   -0.5803    2.9741 H       1  noname1     0.0355
     16 H6          0.7822   -0.0011    0.5272 H       1  noname1     0.0579
     17 H7         -3.0454   -2.2719    2.8372 H       1  noname1     0.0578
     18 H8         -1.5343   -0.9831   -3.1404 H       1  noname1     0.0236
     19 H9         -2.6966   -1.5571   -1.9408 H       1  noname1     0.0236
     20 H10        -2.0279    0.0811   -1.8161 H       1  noname1     0.0236
     21 H11        -0.0193   -3.0229   -2.6358 H       1  noname1     0.0236
     22 H12         0.5034   -3.3266   -0.9732 H       1  noname1     0.0236
     23 H13        -1.1883   -3.5877   -1.4383 H       1  noname1     0.0236
     24 H14        -1.7481    0.2947    4.7701 H       1  noname1     0.0276
     25 H15        -2.4582   -1.3161    4.9423 H       1  noname1     0.0276
     26 H16        -0.7104   -1.1067    5.1151 H       1  noname1     0.0276
@<TRIPOS>BOND
     1     1     2    1
     2     1     8    1
     3     1     9    1
     4     1    11    1
     5     2     3    1
     6     2     5    2
     7     3     7    1
     8     3    12    1
     9     3    13    1
    10     4     5    1
    11     4     6    1
    12     4    14    1
    13     4    15    1
    14     5    16    1
    15     6     7    2
    16     6    10    1
    17     7    17    1
    18     8    18    1
    19     8    19    1
    20     8    20    1
    21     9    21    1
    22     9    22    1
    23     9    23    1
    24    10    24    1
    25    10    25    1
    26    10    26    1
