@<TRIPOS>MOLECULE
5281515
 39 40 0 0 0
SMALL
USER_CHARGES

@<TRIPOS>ATOM
      1 C1          4.5685    1.8945    0.0000 C.3     1  noname1    -0.0314
      2 C2          4.1727    0.3930    0.0000 C.3     1  noname1    -0.0293
      3 C3          5.6602   -0.0055    0.0000 C.3     1  noname1    -0.0167
      4 C4          6.0683    1.4928    0.0000 C.3     1  noname1    -0.0409
      5 C5          3.7742   -1.0945    0.0000 C.3     1  noname1    -0.0456
      6 C6          4.9640    3.3830    0.0000 C.3     1  noname1    -0.0596
      7 C7          3.0801    2.2902    0.0000 C.3     1  noname1    -0.0596
      8 C8          6.9939    0.7645    0.0000 C.2     1  noname1    -0.0826
      9 C9          4.5442   -2.4282    0.0000 C.3     1  noname1    -0.0320
     10 C10         8.3277   -0.0055    0.0000 C.3     1  noname1    -0.0285
     11 C11         5.8778   -1.6582    0.0000 C.2     1  noname1    -0.0800
     12 C12         8.5453   -1.6582    0.0000 C.3     1  noname1    -0.0310
     13 C13         6.9939    2.3045    0.0000 C.2     1  noname1    -0.0905
     14 C14         7.2115   -2.4282    0.0000 C.2     1  noname1    -0.0824
     15 C15         5.8778   -0.1181    0.0000 C.3     1  noname1    -0.0439
     16 H1          2.9076    0.7294    0.0000 H       1  noname1     0.0314
     17 H2          5.8312   -1.3033    0.0000 H       1  noname1     0.0352
     18 H3          6.9899    1.2431    0.0000 H       1  noname1     0.0278
     19 H4          6.3168    2.4146    0.0000 H       1  noname1     0.0278
     20 H5          2.9472   -0.6171    0.0000 H       1  noname1     0.0273
     21 H6          3.0990   -1.7697    0.0000 H       1  noname1     0.0273
     22 H7          5.8868    3.1378    0.0000 H       1  noname1     0.0236
     23 H8          5.2092    4.3058    0.0000 H       1  noname1     0.0236
     24 H9          4.0412    3.6282    0.0000 H       1  noname1     0.0236
     25 H10         3.3252    3.2130    0.0000 H       1  noname1     0.0236
     26 H11         2.1573    2.5354    0.0000 H       1  noname1     0.0236
     27 H12         2.8349    1.3674    0.0000 H       1  noname1     0.0236
     28 H13         3.7172   -2.9056    0.0000 H       1  noname1     0.0312
     29 H14         5.0216   -3.2550    0.0000 H       1  noname1     0.0312
     30 H15         9.2789   -0.0887    0.0000 H       1  noname1     0.0315
     31 H16         8.6148    0.9051    0.0000 H       1  noname1     0.0315
     32 H17         8.9106   -2.5403    0.0000 H       1  noname1     0.0313
     33 H18         9.4675   -1.4110    0.0000 H       1  noname1     0.0313
     34 H19         7.8209    2.7819    0.0000 H       1  noname1     0.0537
     35 H20         6.1671    2.7819    0.0000 H       1  noname1     0.0537
     36 H21         7.2115   -3.3830    0.0000 H       1  noname1     0.0575
     37 H22         6.8327   -0.1181    0.0000 H       1  noname1     0.0276
     38 H23         5.8778    0.8367    0.0000 H       1  noname1     0.0276
     39 H24         4.9230   -0.1181    0.0000 H       1  noname1     0.0276
@<TRIPOS>BOND
     1     1     2    1
     2     1     4    1
     3     1     6    1
     4     1     7    1
     5     2     3    1
     6     2     5    1
     7     2    16    1
     8     3     4    1
     9     3     8    1
    10     3    17    1
    11     4    18    1
    12     4    19    1
    13     5     9    1
    14     5    20    1
    15     5    21    1
    16     6    22    1
    17     6    23    1
    18     6    24    1
    19     7    25    1
    20     7    26    1
    21     7    27    1
    22     8    10    1
    23     8    13    2
    24     9    11    1
    25     9    28    1
    26     9    29    1
    27    10    12    1
    28    10    30    1
    29    10    31    1
    30    11    14    2
    31    11    15    1
    32    12    14    1
    33    12    32    1
    34    12    33    1
    35    13    34    1
    36    13    35    1
    37    14    36    1
    38    15    37    1
    39    15    38    1
    40    15    39    1
