@<TRIPOS>MOLECULE
11106485
 39 41 0 0 0
SMALL
USER_CHARGES

@<TRIPOS>ATOM
      1 C1          3.4270    0.1073   -1.7428 C.3     1  noname1    -0.0229
      2 C2          4.3236    0.3277   -0.4782 C.3     1  noname1    -0.0297
      3 C3          3.4908    1.2577    0.4720 C.3     1  noname1    -0.0254
      4 C4          2.0631    1.2400   -0.1668 C.3     1  noname1    -0.0146
      5 C5          2.3919    1.2495   -1.6602 C.3     1  noname1    -0.0399
      6 C6          4.3570    0.2590   -2.9643 C.3     1  noname1    -0.0382
      7 C7          5.6720    0.8311   -1.0147 C.3     1  noname1    -0.0491
      8 C8          2.6346   -1.2168   -1.6549 C.3     1  noname1    -0.0433
      9 C9          5.4267    1.2382   -2.4632 C.3     1  noname1    -0.0498
     10 C10         1.2263   -0.0070    0.0959 C.2     1  noname1    -0.0826
     11 C11         1.7966   -1.3290   -0.3700 C.3     1  noname1    -0.0314
     12 C12         3.5106    0.7377    1.9206 C.3     1  noname1    -0.0590
     13 C13         3.9980    2.7179    0.5287 C.3     1  noname1    -0.0590
     14 C14         5.0013   -1.0415   -3.4486 C.3     1  noname1    -0.0620
     15 C15         0.0173    0.0670    0.6758 C.2     1  noname1    -0.0905
     16 H1          4.5151   -0.6307    0.0221 H       1  noname1     0.0314
     17 H2          1.4966    2.1393    0.1037 H       1  noname1     0.0354
     18 H3          1.5154    1.0682   -2.2946 H       1  noname1     0.0279
     19 H4          2.8050    2.2150   -1.9693 H       1  noname1     0.0279
     20 H5          3.8198    0.6990   -3.8132 H       1  noname1     0.0305
     21 H6          6.3877   -0.0012   -1.0003 H       1  noname1     0.0270
     22 H7          6.1326    1.6297   -0.4304 H       1  noname1     0.0270
     23 H8          1.9704   -1.2983   -2.5253 H       1  noname1     0.0275
     24 H9          3.3051   -2.0830   -1.6923 H       1  noname1     0.0275
     25 H10         6.3467    1.2054   -3.0555 H       1  noname1     0.0269
     26 H11         5.0509    2.2665   -2.5050 H       1  noname1     0.0269
     27 H12         1.0013   -2.0673   -0.5308 H       1  noname1     0.0312
     28 H13         2.4289   -1.7364    0.4273 H       1  noname1     0.0312
     29 H14         3.2030   -0.3082    1.9997 H       1  noname1     0.0236
     30 H15         2.8429    1.3282    2.5582 H       1  noname1     0.0236
     31 H16         4.5205    0.8023    2.3418 H       1  noname1     0.0236
     32 H17         4.9687    2.7864    1.0320 H       1  noname1     0.0236
     33 H18         4.1029    3.1699   -0.4611 H       1  noname1     0.0236
     34 H19         3.3025    3.3459    1.0983 H       1  noname1     0.0236
     35 H20         5.7337   -0.8368   -4.2371 H       1  noname1     0.0233
     36 H21         5.5173   -1.5725   -2.6423 H       1  noname1     0.0233
     37 H22         4.2488   -1.7138   -3.8733 H       1  noname1     0.0233
     38 H23        -0.5842   -0.8205    0.8484 H       1  noname1     0.0537
     39 H24        -0.4024    1.0154    0.9970 H       1  noname1     0.0537
@<TRIPOS>BOND
     1     1     2    1
     2     1     5    1
     3     1     6    1
     4     1     8    1
     5     2     3    1
     6     2     7    1
     7     2    16    1
     8     3     4    1
     9     3    12    1
    10     3    13    1
    11     4     5    1
    12     4    10    1
    13     4    17    1
    14     5    18    1
    15     5    19    1
    16     6     9    1
    17     6    14    1
    18     6    20    1
    19     7     9    1
    20     7    21    1
    21     7    22    1
    22     8    11    1
    23     8    23    1
    24     8    24    1
    25     9    25    1
    26     9    26    1
    27    10    11    1
    28    10    15    2
    29    11    27    1
    30    11    28    1
    31    12    29    1
    32    12    30    1
    33    12    31    1
    34    13    32    1
    35    13    33    1
    36    13    34    1
    37    14    35    1
    38    14    36    1
    39    14    37    1
    40    15    38    1
    41    15    39    1
