@<TRIPOS>MOLECULE
10106
 29 30 0 0 0
SMALL
USER_CHARGES

@<TRIPOS>ATOM
      1 O1          1.1393   -1.1606    0.2251 O.3     1  noname1    -0.3684
      2 C1          0.8145    0.0061   -0.5764 C.3     1  noname1     0.0716
      3 C2          2.2515   -1.6303   -0.5721 C.3     1  noname1     0.0665
      4 C3          2.1616    0.7489   -0.5864 C.3     1  noname1    -0.0209
      5 C4          0.5872   -0.6456   -1.9543 C.3     1  noname1    -0.0209
      6 C5          3.1681   -0.4037   -0.5716 C.3     1  noname1    -0.0214
      7 C6          1.5913   -1.7990   -1.9426 C.3     1  noname1    -0.0214
      8 C7         -0.4007    0.7698   -0.0323 C.3     1  noname1    -0.0178
      9 C8          2.8752   -2.8868   -0.0108 C.3     1  noname1    -0.0358
     10 C9         -0.2403    1.1790    1.4361 C.3     1  noname1    -0.0600
     11 C10        -0.7398    1.9964   -0.8808 C.3     1  noname1    -0.0600
     12 H1          2.3094    1.3577    0.3108 H       1  noname1     0.0297
     13 H2          2.2813    1.3994   -1.4585 H       1  noname1     0.0297
     14 H3         -0.4272   -1.0514   -2.0433 H       1  noname1     0.0297
     15 H4          0.7516    0.0458   -2.7868 H       1  noname1     0.0297
     16 H5          3.7647   -0.3516    0.3466 H       1  noname1     0.0297
     17 H6          3.8527   -0.3805   -1.4251 H       1  noname1     0.0297
     18 H7          1.0513   -2.7504   -2.0132 H       1  noname1     0.0297
     19 H8          2.3052   -1.7493   -2.7706 H       1  noname1     0.0297
     20 H9         -1.2627    0.0892   -0.0617 H       1  noname1     0.0326
     21 H10         2.1371   -3.6939    0.0523 H       1  noname1     0.0259
     22 H11         3.2366   -2.7202    1.0098 H       1  noname1     0.0259
     23 H12         3.7129   -3.2263   -0.6274 H       1  noname1     0.0259
     24 H13         0.0014    0.3165    2.0652 H       1  noname1     0.0234
     25 H14         0.5435    1.9310    1.5680 H       1  noname1     0.0234
     26 H15        -1.1737    1.6098    1.8154 H       1  noname1     0.0234
     27 H16        -0.9386    1.7173   -1.9202 H       1  noname1     0.0234
     28 H17         0.0757    2.7270   -0.8738 H       1  noname1     0.0234
     29 H18        -1.6373    2.4943   -0.4980 H       1  noname1     0.0234
@<TRIPOS>BOND
     1     1     2    1
     2     1     3    1
     3     2     4    1
     4     2     5    1
     5     2     8    1
     6     3     6    1
     7     3     7    1
     8     3     9    1
     9     4     6    1
    10     4    12    1
    11     4    13    1
    12     5     7    1
    13     5    14    1
    14     5    15    1
    15     6    16    1
    16     6    17    1
    17     7    18    1
    18     7    19    1
    19     8    10    1
    20     8    11    1
    21     8    20    1
    22     9    21    1
    23     9    22    1
    24     9    23    1
    25    10    24    1
    26    10    25    1
    27    10    26    1
    28    11    27    1
    29    11    28    1
    30    11    29    1
