REMARK  8 active torsions:
REMARK  status: ('A' for Active; 'I' for Inactive)
REMARK    1  A    between atoms: O1_1  and  C11_13 
REMARK    2  A    between atoms: O1_1  and  C16_18 
REMARK    3  A    between atoms: C1_3  and  C11_13 
REMARK    4  A    between atoms: C5_7  and  C12_14 
REMARK    5  A    between atoms: C6_8  and  C13_15 
REMARK    6  A    between atoms: C11_13  and  C14_16 
REMARK    7  A    between atoms: C11_13  and  C15_17 
REMARK    8  A    between atoms: C16_18  and  C17_19 
ROOT
ATOM      1  C1  non d   1       0.285  -2.861 -10.969  0.00  0.00    -0.008 C 
ATOM      2  C2  non d   1       1.634  -4.895 -10.124  0.00  0.00    -0.068 C 
ATOM      3  C3  non d   1       1.327  -5.886 -10.976  0.00  0.00    -0.068 C 
ATOM      4  C4  non d   1       0.845  -3.669  -9.778  0.00  0.00    -0.026 C 
ATOM      5  C5  non d   1       2.935  -5.169  -9.407  0.00  0.00    -0.022 C 
ATOM      6  C6  non d   1       0.107  -6.066 -11.828  0.00  0.00    -0.023 C 
ATOM      7  C7  non d   1      -0.837  -3.632 -11.704  0.00  0.00    -0.047 C 
ATOM      8  C8  non d   1      -0.343  -4.796 -12.564  0.00  0.00    -0.047 C 
ATOM      9  C9  non d   1       2.378  -6.961 -10.964  0.00  0.00    -0.031 C 
ATOM     10  C10 non d   1       3.548  -6.289 -10.254  0.00  0.00    -0.043 C 
ATOM     11  H1  non d   1       1.104  -2.727 -11.687  0.00  0.00     0.034 H 
ATOM     12  H2  non d   1       0.036  -3.964  -9.098  0.00  0.00     0.032 H 
ATOM     13  H3  non d   1       1.506  -3.022  -9.194  0.00  0.00     0.032 H 
ATOM     14  H4  non d   1       3.591  -4.291  -9.435  0.00  0.00     0.035 H 
ATOM     15  H5  non d   1       0.367  -6.781 -12.622  0.00  0.00     0.035 H 
ATOM     16  H6  non d   1      -1.597  -3.977 -10.995  0.00  0.00     0.027 H 
ATOM     17  H7  non d   1      -1.356  -2.951 -12.389  0.00  0.00     0.027 H 
ATOM     18  H8  non d   1      -1.161  -5.077 -13.242  0.00  0.00     0.027 H 
ATOM     19  H9  non d   1       0.470  -4.445 -13.214  0.00  0.00     0.027 H 
ATOM     20  H10 non d   1       2.021  -7.835 -10.409  0.00  0.00     0.031 H 
ATOM     21  H11 non d   1       2.667  -7.272 -11.972  0.00  0.00     0.031 H 
ATOM     22  H12 non d   1       4.139  -7.003  -9.671  0.00  0.00     0.028 H 
ATOM     23  H13 non d   1       4.222  -5.852 -11.003  0.00  0.00     0.028 H 
ENDROOT
BRANCH   1  24
ATOM     24  C11 non d   1      -0.193  -1.423 -10.540  0.00  0.00     0.075 C 
BRANCH  24  25
ATOM     25  O1  non d   1      -0.765  -0.700 -11.675  0.00  0.00    -0.203 OA
BRANCH  25  26
ATOM     26  C16 non d   1      -0.000  -0.357 -12.745  0.00  0.00     0.140 C 
ATOM     27  O2  non d   1       1.192  -0.579 -12.887  0.00  0.00    -0.255 OA
BRANCH  26  28
ATOM     28  C17 non d   1      -0.847   0.352 -13.758  0.00  0.00     0.022 C 
ATOM     29  H26 non d   1      -1.642  -0.312 -14.106  0.00  0.00     0.034 H 
ATOM     30  H27 non d   1      -1.267   1.261 -13.320  0.00  0.00     0.034 H 
ATOM     31  H28 non d   1      -0.228   0.633 -14.615  0.00  0.00     0.034 H 
ENDBRANCH  26  28
ENDBRANCH  25  26
ENDBRANCH  24  25
BRANCH  24  32
ATOM     32  C14 non d   1      -1.351  -1.484  -9.525  0.00  0.00    -0.035 C 
ATOM     33  H20 non d   1      -1.063  -1.982  -8.595  0.00  0.00     0.026 H 
ATOM     34  H21 non d   1      -2.225  -1.995  -9.942  0.00  0.00     0.026 H 
ATOM     35  H22 non d   1      -1.692  -0.472  -9.272  0.00  0.00     0.026 H 
ENDBRANCH  24  32
BRANCH  24  36
ATOM     36  C15 non d   1       0.927  -0.570  -9.914  0.00  0.00    -0.035 C 
ATOM     37  H23 non d   1       1.855  -0.634 -10.492  0.00  0.00     0.026 H 
ATOM     38  H24 non d   1       0.642   0.488  -9.887  0.00  0.00     0.026 H 
ATOM     39  H25 non d   1       1.158  -0.879  -8.889  0.00  0.00     0.026 H 
ENDBRANCH  24  36
ENDBRANCH   1  24
BRANCH   5  40
ATOM     40  C12 non d   1       2.715  -5.597  -7.959  0.00  0.00    -0.059 C 
ATOM     41  H14 non d   1       2.064  -6.476  -7.888  0.00  0.00     0.024 H 
ATOM     42  H15 non d   1       3.669  -5.847  -7.484  0.00  0.00     0.024 H 
ATOM     43  H16 non d   1       2.254  -4.791  -7.378  0.00  0.00     0.024 H 
ENDBRANCH   5  40
BRANCH   6  44
ATOM     44  C13 non d   1      -1.024  -6.707 -11.018  0.00  0.00    -0.059 C 
ATOM     45  H17 non d   1      -1.915  -6.849 -11.639  0.00  0.00     0.024 H 
ATOM     46  H18 non d   1      -1.307  -6.100 -10.152  0.00  0.00     0.024 H 
ATOM     47  H19 non d   1      -0.723  -7.692 -10.643  0.00  0.00     0.024 H 
ENDBRANCH   6  44
TORSDOF 8
