@<TRIPOS>MOLECULE
6429022
 37 38 0 0 0
SMALL
USER_CHARGES

@<TRIPOS>ATOM
      1 C1         -2.6441    1.1847   -1.8001 C.3     1  noname1     0.0148
      2 C2         -3.8544    0.4767   -2.4463 C.3     1  noname1    -0.0455
      3 C3         -2.9285   -1.8210   -1.9284 C.3     1  noname1     0.0105
      4 C4         -3.5208   -0.9021   -3.0010 C.3     1  noname1    -0.0460
      5 C5         -1.7242    0.2207   -1.0319 C.ar    1  noname1    -0.0592
      6 C6         -1.8575    2.1173   -2.7857 C.3     1  noname1    -0.0402
      7 C7         -1.8504   -1.1348   -1.1010 C.ar    1  noname1    -0.0657
      8 C8         -4.0336   -2.3789   -1.0183 C.3     1  noname1    -0.0584
      9 C9         -0.7584    0.7438   -0.2324 C.ar    1  noname1    -0.0686
     10 C10        -1.2249    1.3969   -3.9773 C.3     1  noname1    -0.0622
     11 C11        -2.7154    3.2873   -3.2854 C.3     1  noname1    -0.0622
     12 C12        -0.9778   -1.9140   -0.4163 C.ar    1  noname1    -0.0659
     13 C13         0.0964   -0.0363    0.4652 C.ar    1  noname1    -0.0666
     14 C14        -0.0154   -1.3753    0.3527 C.ar    1  noname1    -0.0737
     15 C15         1.1727    0.5755    1.3193 C.3     1  noname1    -0.0033
     16 H1         -3.0775    1.8549   -1.0407 H       1  noname1     0.0355
     17 H2         -4.3033    1.0844   -3.2372 H       1  noname1     0.0273
     18 H3         -4.6389    0.3687   -1.6857 H       1  noname1     0.0273
     19 H4         -2.4807   -2.6728   -2.4597 H       1  noname1     0.0349
     20 H5         -2.8094   -0.8153   -3.8282 H       1  noname1     0.0273
     21 H6         -4.4243   -1.3517   -3.4308 H       1  noname1     0.0273
     22 H7         -1.0322    2.5786   -2.2282 H       1  noname1     0.0303
     23 H8         -4.4978   -1.5952   -0.4101 H       1  noname1     0.0236
     24 H9         -3.6365   -3.1365   -0.3336 H       1  noname1     0.0236
     25 H10        -4.8201   -2.8578   -1.6114 H       1  noname1     0.0236
     26 H11        -0.6632    1.8236   -0.1436 H       1  noname1     0.0628
     27 H12        -0.6274    0.5375   -3.6592 H       1  noname1     0.0233
     28 H13        -1.9805    1.0559   -4.6913 H       1  noname1     0.0233
     29 H14        -0.5565    2.0763   -4.5183 H       1  noname1     0.0233
     30 H15        -3.1895    3.8102   -2.4484 H       1  noname1     0.0233
     31 H16        -3.4981    2.9627   -3.9771 H       1  noname1     0.0233
     32 H17        -2.0924    4.0145   -3.8183 H       1  noname1     0.0233
     33 H18        -1.0505   -2.9975   -0.4737 H       1  noname1     0.0625
     34 H19         0.6633   -2.0322    0.8903 H       1  noname1     0.0625
     35 H20         1.5172    1.5297    0.9050 H       1  noname1     0.0279
     36 H21         2.0512   -0.0761    1.3846 H       1  noname1     0.0279
     37 H22         0.7985    0.7529    2.3330 H       1  noname1     0.0279
@<TRIPOS>BOND
     1     1     2    1
     2     1     5    1
     3     1     6    1
     4     1    16    1
     5     2     4    1
     6     2    17    1
     7     2    18    1
     8     3     4    1
     9     3     7    1
    10     3     8    1
    11     3    19    1
    12     4    20    1
    13     4    21    1
    14     5     7   ar
    15     5     9   ar
    16     6    10    1
    17     6    11    1
    18     6    22    1
    19     7    12   ar
    20     8    23    1
    21     8    24    1
    22     8    25    1
    23     9    13   ar
    24     9    26    1
    25    10    27    1
    26    10    28    1
    27    10    29    1
    28    11    30    1
    29    11    31    1
    30    11    32    1
    31    12    14   ar
    32    12    33    1
    33    13    14   ar
    34    13    15    1
    35    14    34    1
    36    15    35    1
    37    15    36    1
    38    15    37    1
