REMARK  4 active torsions:
REMARK  status: ('A' for Active; 'I' for Inactive)
REMARK    1  A    between atoms: O1_1  and  C4_5 
REMARK    2  A    between atoms: O1_1  and  C10_11 
REMARK    3  A    between atoms: C1_2  and  C7_8 
REMARK    4  A    between atoms: C8_9  and  C9_10 
ROOT
ATOM      1  C1  non d   1      -3.652  -0.467   1.577  0.00  0.00    -0.056 A 
ATOM      2  C2  non d   1      -4.813  -0.269   2.243  0.00  0.00    -0.042 A 
ATOM      3  C3  non d   1      -2.974   0.620   1.138  0.00  0.00    -0.042 A 
ATOM      4  C4  non d   1      -4.582   2.065   2.066  0.00  0.00    -0.002 A 
ATOM      5  C5  non d   1      -5.263   0.978   2.487  0.00  0.00    -0.028 A 
ATOM      6  C6  non d   1      -3.428   1.867   1.383  0.00  0.00    -0.028 A 
ATOM      7  H1  non d   1      -5.398  -1.112   2.600  0.00  0.00     0.063 H 
ATOM      8  H2  non d   1      -2.053   0.507   0.574  0.00  0.00     0.063 H 
ATOM      9  H3  non d   1      -6.194   1.113   3.031  0.00  0.00     0.065 H 
ATOM     10  H4  non d   1      -2.841   2.699   1.010  0.00  0.00     0.065 H 
ENDROOT
BRANCH   1  11
ATOM     11  C7  non d   1      -3.211  -1.829   1.302  0.00  0.00    -0.061 C 
ATOM     12  C8  non d   1      -1.934  -2.243   1.236  0.00  0.00    -0.075 C 
ATOM     13  H6  non d   1      -1.119  -1.543   1.402  0.00  0.00     0.057 H 
ATOM     14  H5  non d   1      -4.007  -2.560   1.162  0.00  0.00     0.062 H 
BRANCH  12  15
ATOM     15  C9  non d   1      -1.533  -3.656   0.961  0.00  0.00    -0.047 C 
ATOM     16  H7  non d   1      -0.948  -4.046   1.799  0.00  0.00     0.027 H 
ATOM     17  H8  non d   1      -2.397  -4.311   0.813  0.00  0.00     0.027 H 
ATOM     18  H9  non d   1      -0.914  -3.698   0.060  0.00  0.00     0.027 H 
ENDBRANCH  12  15
ENDBRANCH   1  11
BRANCH   4  19
ATOM     19  O1  non d   1      -5.133   3.299   2.370  0.00  0.00    -0.278 OA
BRANCH  19  20
ATOM     20  C10 non d   1      -4.440   4.465   1.946  0.00  0.00     0.042 C 
ATOM     21  H10 non d   1      -5.015   5.336   2.275  0.00  0.00     0.053 H 
ATOM     22  H11 non d   1      -3.450   4.523   2.408  0.00  0.00     0.053 H 
ATOM     23  H12 non d   1      -4.368   4.504   0.854  0.00  0.00     0.053 H 
ENDBRANCH  19  20
ENDBRANCH   4  19
TORSDOF 4
