@<TRIPOS>MOLECULE
442348
 39 41 0 0 0
SMALL
USER_CHARGES

@<TRIPOS>ATOM
      1 C1          0.5407    1.0840    2.6317 C.3     1  noname1    -0.0197
      2 C2         -0.5156    2.2085    2.3483 C.3     1  noname1    -0.0294
      3 C3         -0.0297    2.9323    1.0440 C.3     1  noname1    -0.0254
      4 C4          1.0685    1.9617    0.4948 C.3     1  noname1    -0.0146
      5 C5          1.7609    1.5249    1.7964 C.3     1  noname1    -0.0396
      6 C6          0.8061    1.1267    4.1492 C.3     1  noname1    -0.0379
      7 C7         -0.6161    3.0194    3.6486 C.3     1  noname1    -0.0491
      8 C8          0.0749   -0.2836    2.0688 C.3     1  noname1    -0.0285
      9 C9          0.5782    2.6026    4.4992 C.3     1  noname1    -0.0498
     10 C10         0.5083    0.7142   -0.1835 C.2     1  noname1    -0.0774
     11 C11        -1.2085    3.1412    0.0759 C.3     1  noname1    -0.0590
     12 C12         0.5959    4.3254    1.2804 C.3     1  noname1    -0.0590
     13 C13         0.0563   -0.3156    0.5591 C.2     1  noname1    -0.0808
     14 C14        -0.1109    0.2264    4.9810 C.3     1  noname1    -0.0619
     15 C15         0.5176    0.6862   -1.6829 C.3     1  noname1    -0.0436
     16 H1         -1.5013    1.7580    2.1697 H       1  noname1     0.0314
     17 H2          1.7841    2.4634   -0.1661 H       1  noname1     0.0354
     18 H3          2.3127    2.3513    2.2547 H       1  noname1     0.0279
     19 H4          2.4826    0.7123    1.6462 H       1  noname1     0.0279
     20 H5          1.8424    0.8467    4.3732 H       1  noname1     0.0306
     21 H6         -1.5381    2.7325    4.1709 H       1  noname1     0.0270
     22 H7         -0.6735    4.1012    3.5153 H       1  noname1     0.0270
     23 H8          0.7513   -1.0758    2.4127 H       1  noname1     0.0315
     24 H9         -0.9292   -0.5287    2.4336 H       1  noname1     0.0315
     25 H10         0.3935    2.7649    5.5659 H       1  noname1     0.0269
     26 H11         1.4570    3.1982    4.2277 H       1  noname1     0.0269
     27 H12        -1.7451    2.2107   -0.1358 H       1  noname1     0.0236
     28 H13        -0.8656    3.5572   -0.8779 H       1  noname1     0.0236
     29 H14        -1.9401    3.8384    0.5006 H       1  noname1     0.0236
     30 H15        -0.1580    5.0557    1.5944 H       1  noname1     0.0236
     31 H16         1.3838    4.3158    2.0380 H       1  noname1     0.0236
     32 H17         1.0412    4.7089    0.3546 H       1  noname1     0.0236
     33 H18        -0.3298   -1.2154    0.0877 H       1  noname1     0.0575
     34 H19         0.0525    0.3958    6.0508 H       1  noname1     0.0233
     35 H20        -1.1698    0.4074    4.7709 H       1  noname1     0.0233
     36 H21         0.0975   -0.8303    4.7852 H       1  noname1     0.0233
     37 H22         0.0984   -0.2456   -2.0769 H       1  noname1     0.0276
     38 H23         1.5431    0.7739   -2.0559 H       1  noname1     0.0276
     39 H24        -0.0707    1.5133   -2.0906 H       1  noname1     0.0276
@<TRIPOS>BOND
     1     1     2    1
     2     1     5    1
     3     1     6    1
     4     1     8    1
     5     2     3    1
     6     2     7    1
     7     2    16    1
     8     3     4    1
     9     3    11    1
    10     3    12    1
    11     4     5    1
    12     4    10    1
    13     4    17    1
    14     5    18    1
    15     5    19    1
    16     6     9    1
    17     6    14    1
    18     6    20    1
    19     7     9    1
    20     7    21    1
    21     7    22    1
    22     8    13    1
    23     8    23    1
    24     8    24    1
    25     9    25    1
    26     9    26    1
    27    10    13    2
    28    10    15    1
    29    11    27    1
    30    11    28    1
    31    11    29    1
    32    12    30    1
    33    12    31    1
    34    12    32    1
    35    13    33    1
    36    14    34    1
    37    14    35    1
    38    14    36    1
    39    15    37    1
    40    15    38    1
    41    15    39    1
