@<TRIPOS>MOLECULE
65575
 42 44 0 0 0
SMALL
USER_CHARGES

@<TRIPOS>ATOM
      1 O1          3.3831    5.3690   -0.1774 O.3     1  noname11   -0.3897
      2 C1          1.9828    1.4782    0.0208 C.3     1  noname11   -0.0233
      3 C2          2.2573    1.8932    1.5013 C.3     1  noname11   -0.0299
      4 C3          3.5972    2.7085    1.4663 C.3     1  noname11   -0.0264
      5 C4          3.8286    2.9608   -0.0722 C.3     1  noname11   -0.0067
      6 C5          3.3615    1.6204   -0.6497 C.3     1  noname11   -0.0409
      7 C6          1.5165    0.0077    0.0657 C.3     1  noname11   -0.0382
      8 C7          1.0268    2.4709   -0.6798 C.3     1  noname11   -0.0443
      9 C8          3.0159    4.1095   -0.7480 C.3     1  noname11    0.0654
     10 C9          2.1977    0.5907    2.3143 C.3     1  noname11   -0.0491
     11 C10         2.2408   -0.5464    1.2998 C.3     1  noname11   -0.0498
     12 C11         1.4966    3.9293   -0.5716 C.3     1  noname11   -0.0236
     13 C12         3.4797    3.9766    2.3274 C.3     1  noname11   -0.0592
     14 C13         4.8170    1.9350    2.0293 C.3     1  noname11   -0.0592
     15 C14         0.0045   -0.1859    0.1974 C.3     1  noname11   -0.0620
     16 C15         3.3522    4.2331   -2.2459 C.3     1  noname11   -0.0358
     17 H1          1.4456    2.5340    1.8698 H       1  noname11    0.0314
     18 H2          4.8958    3.1244   -0.2668 H       1  noname11    0.0338
     19 H3          3.2997    1.5964   -1.7409 H       1  noname11    0.0276
     20 H4          4.0478    0.8125   -0.3776 H       1  noname11    0.0276
     21 H5          1.8432   -0.5338   -0.8304 H       1  noname11    0.0305
     22 H6          0.9315    2.1981   -1.7384 H       1  noname11    0.0273
     23 H7          0.0197    2.4171   -0.2514 H       1  noname11    0.0273
     24 H8          1.2367    0.5522    2.8437 H       1  noname11    0.0270
     25 H9          2.9650    0.4898    3.0838 H       1  noname11    0.0270
     26 H10         1.7795   -1.4583    1.6925 H       1  noname11    0.0269
     27 H11         3.2805   -0.7899    1.0547 H       1  noname11    0.0269
     28 H12         1.1866    4.3291    0.4012 H       1  noname11    0.0296
     29 H13         0.9485    4.5451   -1.2966 H       1  noname11    0.0296
     30 H14         3.3836    3.7165    3.3884 H       1  noname11    0.0236
     31 H15         4.3681    4.6089    2.2218 H       1  noname11    0.0236
     32 H16         2.6021    4.5787    2.0812 H       1  noname11    0.0236
     33 H17         4.7360    1.7885    3.1121 H       1  noname11    0.0236
     34 H18         5.7422    2.4978    1.8563 H       1  noname11    0.0236
     35 H19         4.9479    0.9504    1.5732 H       1  noname11    0.0236
     36 H20        -0.5101    0.1406   -0.7121 H       1  noname11    0.0233
     37 H21        -0.4112    0.3702    1.0437 H       1  noname11    0.0233
     38 H22        -0.2359   -1.2448    0.3420 H       1  noname11    0.0233
     39 H23         2.9316    5.1578   -2.6595 H       1  noname11    0.0260
     40 H24         4.4360    4.2972   -2.3963 H       1  noname11    0.0260
     41 H25         2.9687    3.4007   -2.8415 H       1  noname11    0.0260
     42 H26         4.3468    5.4671   -0.2646 H       1  noname11    0.2108
@<TRIPOS>BOND
     1     9     1    1
     2     1    42    1
     3     2     3    1
     4     2     6    1
     5     2     7    1
     6     2     8    1
     7     3     4    1
     8     3    10    1
     9     3    17    1
    10     4     5    1
    11     4    13    1
    12     4    14    1
    13     5     6    1
    14     5     9    1
    15     5    18    1
    16     6    19    1
    17     6    20    1
    18     7    11    1
    19     7    15    1
    20     7    21    1
    21     8    12    1
    22     8    22    1
    23     8    23    1
    24     9    12    1
    25     9    16    1
    26    10    11    1
    27    10    24    1
    28    10    25    1
    29    11    26    1
    30    11    27    1
    31    12    28    1
    32    12    29    1
    33    13    30    1
    34    13    31    1
    35    13    32    1
    36    14    33    1
    37    14    34    1
    38    14    35    1
    39    15    36    1
    40    15    37    1
    41    15    38    1
    42    16    39    1
    43    16    40    1
    44    16    41    1
