REMARK  4 active torsions:
REMARK  status: ('A' for Active; 'I' for Inactive)
REMARK    1  A    between atoms: C1_1  and  C2_2 
REMARK    2  A    between atoms: C2_2  and  C7_7 
REMARK    3  A    between atoms: C2_2  and  C8_8 
REMARK    4  A    between atoms: C5_5  and  C10_10 
ROOT
ATOM      1  C1  non d   1      -0.832  -1.334   0.271  0.00  0.00    -0.066 C 
ATOM      2  C3  non d   1      -1.897  -2.184   0.933  0.00  0.00    -0.028 C 
ATOM      3  C4  non d   1      -2.329  -1.709   2.334  0.00  0.00    -0.028 C 
ATOM      4  C5  non d   1      -1.280  -0.928   3.087  0.00  0.00    -0.070 C 
ATOM      5  C6  non d   1      -0.078  -0.501   1.012  0.00  0.00    -0.065 C 
ATOM      6  C9  non d   1      -0.234  -0.387   2.442  0.00  0.00    -0.066 C 
ATOM      7  H2  non d   1      -1.511  -3.208   1.014  0.00  0.00     0.032 H 
ATOM      8  H3  non d   1      -2.793  -2.237   0.306  0.00  0.00     0.032 H 
ATOM      9  H4  non d   1      -2.631  -2.588   2.916  0.00  0.00     0.032 H 
ATOM     10  H5  non d   1      -3.221  -1.075   2.240  0.00  0.00     0.032 H 
ATOM     11  H6  non d   1       0.700   0.107   0.559  0.00  0.00     0.062 H 
ATOM     12  H13 non d   1       0.521   0.186   2.974  0.00  0.00     0.062 H 
ENDROOT
BRANCH   1  13
ATOM     13  C2  non d   1      -0.618  -1.468  -1.228  0.00  0.00    -0.026 C 
ATOM     14  H1  non d   1       0.262  -0.873  -1.511  0.00  0.00     0.034 H 
BRANCH  13  15
ATOM     15  C7  non d   1      -1.801  -0.908  -2.021  0.00  0.00    -0.059 C 
ATOM     16  H7  non d   1      -1.574  -0.903  -3.093  0.00  0.00     0.024 H 
ATOM     17  H8  non d   1      -2.709  -1.504  -1.881  0.00  0.00     0.024 H 
ATOM     18  H9  non d   1      -2.022   0.123  -1.724  0.00  0.00     0.024 H 
ENDBRANCH  13  15
BRANCH  13  19
ATOM     19  C8  non d   1      -0.323  -2.911  -1.640  0.00  0.00    -0.059 C 
ATOM     20  H10 non d   1      -0.065  -2.961  -2.704  0.00  0.00     0.024 H 
ATOM     21  H11 non d   1       0.522  -3.317  -1.073  0.00  0.00     0.024 H 
ATOM     22  H12 non d   1      -1.186  -3.566  -1.479  0.00  0.00     0.024 H 
ENDBRANCH  13  19
ENDBRANCH   1  13
BRANCH   4  23
ATOM     23  C10 non d   1      -1.484  -0.777   4.564  0.00  0.00    -0.044 C 
ATOM     24  H14 non d   1      -1.489  -1.758   5.049  0.00  0.00     0.028 H 
ATOM     25  H15 non d   1      -0.694  -0.178   5.028  0.00  0.00     0.028 H 
ATOM     26  H16 non d   1      -2.440  -0.283   4.765  0.00  0.00     0.028 H 
ENDBRANCH   4  23
TORSDOF 4
