@<TRIPOS>MOLECULE
28930
 26 27 0 0 0
SMALL
USER_CHARGES

@<TRIPOS>ATOM
      1 C1          3.2498    0.7217   -0.9488 C.3     1  noname11   -0.0257
      2 C2          3.4857   -0.5158   -0.0409 C.3     1  noname11   -0.0319
      3 C3          2.1411    1.2625   -0.0125 C.3     1  noname11   -0.0151
      4 C4          3.7733    0.1166    1.3456 C.3     1  noname11   -0.0490
      5 C5          2.8350    1.3427    1.3639 C.3     1  noname11   -0.0459
      6 C6          2.0862   -1.1756    0.0423 C.3     1  noname11   -0.0286
      7 C7          1.2128    0.0600    0.0817 C.2     1  noname11   -0.0824
      8 C8          2.7760    0.3942   -2.3800 C.3     1  noname11   -0.0591
      9 C9          4.4719    1.6474   -1.0965 C.3     1  noname11   -0.0591
     10 C10        -0.1223    0.0848    0.1410 C.2     1  noname11   -0.0904
     11 H1          4.2676   -1.2033   -0.3722 H       1  noname11    0.0311
     12 H2          1.6598    2.1890   -0.3329 H       1  noname11    0.0354
     13 H3          4.8200    0.4241    1.4384 H       1  noname11    0.0270
     14 H4          3.5590   -0.5707    2.1710 H       1  noname11    0.0270
     15 H5          3.4081    2.2694    1.4733 H       1  noname11    0.0273
     16 H6          2.1269    1.2937    2.1990 H       1  noname11    0.0273
     17 H7          1.8785   -1.7858   -0.8419 H       1  noname11    0.0315
     18 H8          1.9737   -1.7907    0.9404 H       1  noname11    0.0315
     19 H9          2.5639    1.3171   -2.9324 H       1  noname11    0.0236
     20 H10         3.5553   -0.1515   -2.9241 H       1  noname11    0.0236
     21 H11         1.8670   -0.2105   -2.4313 H       1  noname11    0.0236
     22 H12         4.1966    2.5604   -1.6370 H       1  noname11    0.0236
     23 H13         5.2633    1.1460   -1.6655 H       1  noname11    0.0236
     24 H14         4.9187    1.9669   -0.1527 H       1  noname11    0.0236
     25 H15        -0.6995   -0.8333    0.1866 H       1  noname11    0.0537
     26 H16        -0.6678    1.0230    0.1460 H       1  noname11    0.0537
@<TRIPOS>BOND
     1     1     2    1
     2     1     3    1
     3     1     8    1
     4     1     9    1
     5     2     4    1
     6     2     6    1
     7     2    11    1
     8     3     5    1
     9     3     7    1
    10     3    12    1
    11     4     5    1
    12     4    13    1
    13     4    14    1
    14     5    15    1
    15     5    16    1
    16     6     7    1
    17     6    17    1
    18     6    18    1
    19     7    10    2
    20     8    19    1
    21     8    20    1
    22     8    21    1
    23     9    22    1
    24     9    23    1
    25     9    24    1
    26    10    25    1
    27    10    26    1
