REMARK  3 active torsions:
REMARK  status: ('A' for Active; 'I' for Inactive)
REMARK    1  A    between atoms: C1_1  and  C5_5 
REMARK    2  A    between atoms: C5_5  and  C8_8 
REMARK    3  A    between atoms: C5_5  and  C9_9 
ROOT
ATOM      1  C1  non d   1       3.599   0.726  -0.472  0.00  0.00    -0.020 C 
ATOM      2  C2  non d   1       2.180   1.213  -0.257  0.00  0.00    -0.014 C 
ATOM      3  C3  non d   1       2.814   1.356  -1.606  0.00  0.00    -0.040 C 
ATOM      4  C4  non d   1       3.593  -0.789  -0.361  0.00  0.00    -0.043 C 
ATOM      5  C6  non d   1       1.366   0.030   0.053  0.00  0.00    -0.083 C 
ATOM      6  C7  non d   1       2.272  -1.146   0.339  0.00  0.00    -0.031 C 
ATOM      7  C10 non d   1       0.030  -0.046   0.032  0.00  0.00    -0.090 C 
ATOM      8  H1  non d   1       2.015   2.099   0.346  0.00  0.00     0.035 H 
ATOM      9  H2  non d   1       2.463   0.725  -2.416  0.00  0.00     0.028 H 
ATOM     10  H3  non d   1       3.080   2.356  -1.933  0.00  0.00     0.028 H 
ATOM     11  H4  non d   1       4.442  -1.190   0.200  0.00  0.00     0.028 H 
ATOM     12  H5  non d   1       3.627  -1.234  -1.363  0.00  0.00     0.028 H 
ATOM     13  H7  non d   1       2.433  -1.219   1.421  0.00  0.00     0.031 H 
ATOM     14  H8  non d   1       1.874  -2.098  -0.024  0.00  0.00     0.031 H 
ATOM     15  H15 non d   1      -0.487  -0.974   0.252  0.00  0.00     0.054 H 
ATOM     16  H16 non d   1      -0.573   0.824  -0.208  0.00  0.00     0.054 H 
ENDROOT
BRANCH   1  17
ATOM     17  C5  non d   1       4.758   1.503   0.124  0.00  0.00    -0.041 C 
ATOM     18  H6  non d   1       4.568   2.576  -0.018  0.00  0.00     0.030 H 
BRANCH  17  19
ATOM     19  C8  non d   1       4.893   1.272   1.630  0.00  0.00    -0.062 C 
ATOM     20  H9  non d   1       3.956   1.505   2.147  0.00  0.00     0.023 H 
ATOM     21  H10 non d   1       5.152   0.235   1.864  0.00  0.00     0.023 H 
ATOM     22  H11 non d   1       5.676   1.913   2.049  0.00  0.00     0.023 H 
ENDBRANCH  17  19
BRANCH  17  23
ATOM     23  C9  non d   1       6.066   1.179  -0.597  0.00  0.00    -0.062 C 
ATOM     24  H12 non d   1       5.972   1.363  -1.673  0.00  0.00     0.023 H 
ATOM     25  H13 non d   1       6.354   0.132  -0.463  0.00  0.00     0.023 H 
ATOM     26  H14 non d   1       6.882   1.804  -0.218  0.00  0.00     0.023 H 
ENDBRANCH  17  23
ENDBRANCH   1  17
TORSDOF 3
