REMARK  4 active torsions:
REMARK  status: ('A' for Active; 'I' for Inactive)
REMARK    1  A    between atoms: C1_1  and  C8_8 
REMARK    2  A    between atoms: C7_7  and  C12_12 
REMARK    3  A    between atoms: C13_13  and  C14_14 
REMARK    4  A    between atoms: C13_13  and  C15_15 
ROOT
ATOM      1  C1  non d   1      -0.058  -3.983   0.485  0.00  0.00    -0.025 C 
ATOM      2  C2  non d   1      -0.858  -2.703   0.904  0.00  0.00    -0.011 C 
ATOM      3  C3  non d   1       1.235  -3.602  -0.285  0.00  0.00    -0.043 C 
ATOM      4  C4  non d   1      -0.959  -4.886  -0.395  0.00  0.00    -0.044 C 
ATOM      5  C5  non d   1      -0.987  -1.688  -0.256  0.00  0.00    -0.025 C 
ATOM      6  C6  non d   1       1.033  -2.585  -1.409  0.00  0.00    -0.031 C 
ATOM      7  C7  non d   1      -2.249  -3.038   1.436  0.00  0.00    -0.077 C 
ATOM      8  C9  non d   1       0.361  -1.343  -0.863  0.00  0.00    -0.073 C 
ATOM      9  C10 non d   1      -2.272  -5.279   0.289  0.00  0.00    -0.034 C 
ATOM     10  C11 non d   1      -2.866  -4.197   1.143  0.00  0.00    -0.081 C 
ATOM     11  C13 non d   1       0.892  -0.096  -0.902  0.00  0.00    -0.075 C 
ATOM     12  H1  non d   1      -0.294  -2.217   1.714  0.00  0.00     0.036 H 
ATOM     13  H2  non d   1       1.966  -3.183   0.422  0.00  0.00     0.028 H 
ATOM     14  H3  non d   1       1.700  -4.505  -0.702  0.00  0.00     0.028 H 
ATOM     15  H4  non d   1      -1.205  -4.375  -1.334  0.00  0.00     0.028 H 
ATOM     16  H5  non d   1      -0.422  -5.798  -0.685  0.00  0.00     0.028 H 
ATOM     17  H6  non d   1      -1.520  -0.798   0.087  0.00  0.00     0.032 H 
ATOM     18  H7  non d   1      -1.623  -2.098  -1.052  0.00  0.00     0.032 H 
ATOM     19  H8  non d   1       2.011  -2.384  -1.851  0.00  0.00     0.031 H 
ATOM     20  H9  non d   1       0.419  -3.009  -2.212  0.00  0.00     0.031 H 
ATOM     21  H13 non d   1      -2.998  -5.575  -0.476  0.00  0.00     0.031 H 
ATOM     22  H14 non d   1      -2.107  -6.160   0.920  0.00  0.00     0.031 H 
ATOM     23  H15 non d   1      -3.852  -4.407   1.553  0.00  0.00     0.058 H 
ENDROOT
BRANCH  11  24
ATOM     24  C14 non d   1       2.192   0.251  -1.589  0.00  0.00    -0.044 C 
ATOM     25  H19 non d   1       2.500  -0.477  -2.342  0.00  0.00     0.028 H 
ATOM     26  H20 non d   1       2.993   0.352  -0.850  0.00  0.00     0.028 H 
ATOM     27  H21 non d   1       2.094   1.205  -2.120  0.00  0.00     0.028 H 
ENDBRANCH  11  24
BRANCH  11  28
ATOM     28  C15 non d   1       0.255   1.113  -0.258  0.00  0.00    -0.044 C 
ATOM     29  H22 non d   1       1.024   1.748   0.196  0.00  0.00     0.028 H 
ATOM     30  H23 non d   1      -0.436   0.865   0.550  0.00  0.00     0.028 H 
ATOM     31  H24 non d   1      -0.276   1.705  -1.010  0.00  0.00     0.028 H 
ENDBRANCH  11  28
BRANCH   1  32
ATOM     32  C8  non d   1       0.387  -4.772   1.743  0.00  0.00    -0.059 C 
ATOM     33  H10 non d   1       1.054  -4.167   2.368  0.00  0.00     0.024 H 
ATOM     34  H11 non d   1       0.933  -5.680   1.461  0.00  0.00     0.024 H 
ATOM     35  H12 non d   1      -0.452  -5.077   2.374  0.00  0.00     0.024 H 
ENDBRANCH   1  32
BRANCH   7  36
ATOM     36  C12 non d   1      -2.893  -2.015   2.331  0.00  0.00    -0.044 C 
ATOM     37  H16 non d   1      -3.073  -1.081   1.790  0.00  0.00     0.028 H 
ATOM     38  H17 non d   1      -3.856  -2.360   2.723  0.00  0.00     0.028 H 
ATOM     39  H18 non d   1      -2.247  -1.802   3.189  0.00  0.00     0.028 H 
ENDBRANCH   7  36
TORSDOF 4
