@<TRIPOS>MOLECULE
101412242
 40 42 0 0 0
SMALL
USER_CHARGES

@<TRIPOS>ATOM
      1 O1          6.8905   -3.4351    0.0000 O.3     1  noname1    -0.3927
      2 C1          4.6181   -0.0785    0.0000 C.3     1  noname1    -0.0201
      3 C2          8.9560    0.0527    0.0000 C.3     1  noname1    -0.0254
      4 C3          7.2002    1.5267    0.0000 C.3     1  noname1    -0.0312
      5 C4          6.8016    0.0391    0.0000 C.3     1  noname1    -0.0113
      6 C5          8.2639   -1.3160    0.0000 C.3     1  noname1    -0.0092
      7 C6          5.3917   -1.4029    0.0000 C.3     1  noname1    -0.0204
      8 C7          6.8439   -1.8958    0.0000 C.3     1  noname1     0.0580
      9 C8          7.0793    3.7764    0.0000 C.3     1  noname1    -0.0458
     10 C9          4.9212    2.5305    0.0000 C.2     1  noname1    -0.0824
     11 C10         3.0802   -0.1612    0.0000 C.3     1  noname1    -0.0587
     12 C11         5.5477    3.9374    0.0000 C.3     1  noname1    -0.0317
     13 C12         9.3082   -2.4479    0.0000 C.3     1  noname1    -0.0415
     14 C13         3.4148    2.2103    0.0000 C.2     1  noname1    -0.0904
     15 C14         8.8500   -3.9183    0.0000 C.3     1  noname1    -0.0624
     16 C15        10.8106   -2.1096    0.0000 C.3     1  noname1    -0.0624
     17 H1         10.2384    0.3154    0.0000 H       1  noname1     0.0316
     18 H2          7.5390    2.7912    0.0000 H       1  noname1     0.0312
     19 H3          6.4628   -1.2253    0.0000 H       1  noname1     0.0357
     20 H4          9.2097   -1.1842    0.0000 H       1  noname1     0.0335
     21 H5          4.4648   -1.6329    0.0000 H       1  noname1     0.0299
     22 H6          5.3516   -2.3568    0.0000 H       1  noname1     0.0299
     23 H7          7.6445   -2.4162    0.0000 H       1  noname1     0.0603
     24 H8          8.0341    3.7772    0.0000 H       1  noname1     0.0273
     25 H9          7.1289    4.7299    0.0000 H       1  noname1     0.0273
     26 H10         3.0289    0.7922    0.0000 H       1  noname1     0.0236
     27 H11         2.1267   -0.2127    0.0000 H       1  noname1     0.0236
     28 H12         3.1314   -1.1147    0.0000 H       1  noname1     0.0236
     29 H13         5.7462    4.8714    0.0000 H       1  noname1     0.0312
     30 H14         4.6395    4.2324    0.0000 H       1  noname1     0.0312
     31 H15         8.3766   -2.6577    0.0000 H       1  noname1     0.0301
     32 H16         2.7758    2.9198    0.0000 H       1  noname1     0.0537
     33 H17         3.1197    1.3021    0.0000 H       1  noname1     0.0537
     34 H18         6.0784   -3.9374    0.0000 H       1  noname1     0.2104
     35 H19         7.9383   -3.6343    0.0000 H       1  noname1     0.0233
     36 H20         8.5659   -4.8298    0.0000 H       1  noname1     0.0233
     37 H21         9.7616   -4.2024    0.0000 H       1  noname1     0.0233
     38 H22        11.0203   -3.0410    0.0000 H       1  noname1     0.0233
     39 H23        11.7422   -1.8997    0.0000 H       1  noname1     0.0233
     40 H24        10.6008   -1.1780    0.0000 H       1  noname1     0.0233
@<TRIPOS>BOND
     1     8     1    1
     2     1    34    1
     3     2     4    1
     4     2     5    1
     5     2     7    1
     6     2    11    1
     7     3     4    1
     8     3     5    1
     9     3     6    1
    10     3    17    1
    11     4     9    1
    12     4    18    1
    13     5    10    1
    14     5    19    1
    15     6     8    1
    16     6    13    1
    17     6    20    1
    18     7     8    1
    19     7    21    1
    20     7    22    1
    21     8    23    1
    22     9    12    1
    23     9    24    1
    24     9    25    1
    25    10    12    1
    26    10    14    2
    27    11    26    1
    28    11    27    1
    29    11    28    1
    30    12    29    1
    31    12    30    1
    32    13    15    1
    33    13    16    1
    34    13    31    1
    35    14    32    1
    36    14    33    1
    37    15    35    1
    38    15    36    1
    39    15    37    1
    40    16    38    1
    41    16    39    1
    42    16    40    1
