REMARK  8 active torsions:
REMARK  status: ('A' for Active; 'I' for Inactive)
REMARK    1  A    between atoms: O1_1  and  C1_2 
REMARK    2  A    between atoms: C1_2  and  C2_3 
REMARK    3  A    between atoms: C1_2  and  C4_5 
REMARK    4  A    between atoms: C1_2  and  C5_6 
REMARK    5  A    between atoms: C2_3  and  C3_4 
REMARK    6  A    between atoms: C3_4  and  C6_7 
REMARK    7  A    between atoms: C7_8  and  C8_9 
REMARK    8  A    between atoms: C7_8  and  C9_10 
ROOT
ATOM      1  C2  non d   1       0.189  -4.034   1.259  0.00  0.00    -0.017 C 
ATOM      2  H1  non d   1       1.019  -4.622   1.676  0.00  0.00     0.030 H 
ATOM      3  H2  non d   1      -0.734  -4.405   1.724  0.00  0.00     0.030 H 
ENDROOT
BRANCH   1   4
ATOM      4  C1  non d   1       0.396  -2.547   1.631  0.00  0.00     0.080 C 
BRANCH   4   5
ATOM      5  O1  non d   1       1.618  -2.088   1.047  0.00  0.00    -0.386 OA
ATOM      6  H10 non d   1       1.466  -1.940   0.100  0.00  0.00     0.211 HD
ENDBRANCH   4   5
BRANCH   4   7
ATOM      7  C4  non d   1      -0.751  -1.661   1.125  0.00  0.00    -0.032 C 
ATOM      8  H5  non d   1      -0.799  -1.647   0.031  0.00  0.00     0.026 H 
ATOM      9  H6  non d   1      -1.719  -1.994   1.512  0.00  0.00     0.026 H 
ATOM     10  H7  non d   1      -0.603  -0.616   1.423  0.00  0.00     0.026 H 
ENDBRANCH   4   7
BRANCH   4  11
ATOM     11  C5  non d   1       0.565  -2.301   3.116  0.00  0.00    -0.074 C 
ATOM     12  C10 non d   1       0.374  -3.159   4.129  0.00  0.00    -0.086 C 
ATOM     13  H17 non d   1       0.546  -2.843   5.154  0.00  0.00     0.053 H 
ATOM     14  H18 non d   1       0.055  -4.184   3.978  0.00  0.00     0.053 H 
ATOM     15  H8  non d   1       0.895  -1.295   3.374  0.00  0.00     0.060 H 
ENDBRANCH   4  11
ENDBRANCH   1   4
BRANCH   1  16
ATOM     16  C3  non d   1       0.133  -4.319  -0.247  0.00  0.00    -0.032 C 
ATOM     17  H3  non d   1       1.065  -3.999  -0.728  0.00  0.00     0.031 H 
ATOM     18  H4  non d   1      -0.665  -3.745  -0.724  0.00  0.00     0.031 H 
BRANCH  16  19
ATOM     19  C6  non d   1      -0.033  -5.792  -0.513  0.00  0.00    -0.084 C 
ATOM     20  C7  non d   1      -1.156  -6.440  -0.878  0.00  0.00    -0.082 C 
ATOM     21  H9  non d   1       0.886  -6.368  -0.401  0.00  0.00     0.058 H 
BRANCH  20  22
ATOM     22  C8  non d   1      -1.135  -7.924  -1.138  0.00  0.00    -0.044 C 
ATOM     23  H11 non d   1      -1.458  -8.134  -2.163  0.00  0.00     0.028 H 
ATOM     24  H12 non d   1      -0.136  -8.355  -1.011  0.00  0.00     0.028 H 
ATOM     25  H13 non d   1      -1.810  -8.440  -0.447  0.00  0.00     0.028 H 
ENDBRANCH  20  22
BRANCH  20  26
ATOM     26  C9  non d   1      -2.507  -5.802  -1.050  0.00  0.00    -0.044 C 
ATOM     27  H14 non d   1      -3.255  -6.341  -0.458  0.00  0.00     0.028 H 
ATOM     28  H15 non d   1      -2.539  -4.760  -0.723  0.00  0.00     0.028 H 
ATOM     29  H16 non d   1      -2.809  -5.837  -2.101  0.00  0.00     0.028 H 
ENDBRANCH  20  26
ENDBRANCH  16  19
ENDBRANCH   1  16
TORSDOF 8
