@<TRIPOS>MOLECULE
7462
 26 26 0 0 0
SMALL
USER_CHARGES

@<TRIPOS>ATOM
      1 C1         -0.8320   -1.3341    0.2708 C.2     1  noname1    -0.0658
      2 C2         -0.6181   -1.4677   -1.2278 C.3     1  noname1    -0.0256
      3 C3         -1.8969   -2.1836    0.9334 C.3     1  noname1    -0.0277
      4 C4         -2.3292   -1.7088    2.3343 C.3     1  noname1    -0.0282
      5 C5         -1.2797   -0.9284    3.0866 C.2     1  noname1    -0.0695
      6 C6         -0.0778   -0.5015    1.0120 C.2     1  noname1    -0.0648
      7 C7         -1.8010   -0.9083   -2.0214 C.3     1  noname1    -0.0590
      8 C8         -0.3229   -2.9114   -1.6401 C.3     1  noname1    -0.0590
      9 C9         -0.2335   -0.3869    2.4417 C.2     1  noname1    -0.0662
     10 C10        -1.4840   -0.7766    4.5635 C.3     1  noname1    -0.0436
     11 H1          0.2618   -0.8734   -1.5107 H       1  noname1     0.0343
     12 H2         -1.5111   -3.2083    1.0141 H       1  noname1     0.0316
     13 H3         -2.7934   -2.2373    0.3059 H       1  noname1     0.0316
     14 H4         -2.6308   -2.5885    2.9163 H       1  noname1     0.0315
     15 H5         -3.2207   -1.0752    2.2397 H       1  noname1     0.0315
     16 H6          0.7003    0.1071    0.5587 H       1  noname1     0.0622
     17 H7         -1.5740   -0.9031   -3.0933 H       1  noname1     0.0236
     18 H8         -2.7086   -1.5043   -1.8805 H       1  noname1     0.0236
     19 H9         -2.0222    0.1226   -1.7237 H       1  noname1     0.0236
     20 H10        -0.0649   -2.9613   -2.7037 H       1  noname1     0.0236
     21 H11         0.5221   -3.3170   -1.0730 H       1  noname1     0.0236
     22 H12        -1.1864   -3.5659   -1.4786 H       1  noname1     0.0236
     23 H13         0.5214    0.1857    2.9738 H       1  noname1     0.0622
     24 H14        -1.4891   -1.7576    5.0493 H       1  noname1     0.0276
     25 H15        -0.6936   -0.1778    5.0282 H       1  noname1     0.0276
     26 H16        -2.4399   -0.2829    4.7654 H       1  noname1     0.0276
@<TRIPOS>BOND
     1     1     2    1
     2     1     3    1
     3     1     6    2
     4     2     7    1
     5     2     8    1
     6     2    11    1
     7     3     4    1
     8     3    12    1
     9     3    13    1
    10     4     5    1
    11     4    14    1
    12     4    15    1
    13     5     9    2
    14     5    10    1
    15     6     9    1
    16     6    16    1
    17     7    17    1
    18     7    18    1
    19     7    19    1
    20     8    20    1
    21     8    21    1
    22     8    22    1
    23     9    23    1
    24    10    24    1
    25    10    25    1
    26    10    26    1
