REMARK  8 active torsions:
REMARK  status: ('A' for Active; 'I' for Inactive)
REMARK    1  A    between atoms: C1_1  and  C2_2 
REMARK    2  A    between atoms: C1_1  and  C3_3 
REMARK    3  A    between atoms: C1_1  and  C5_5 
REMARK    4  A    between atoms: C2_2  and  C4_4 
REMARK    5  A    between atoms: C4_4  and  C8_8 
REMARK    6  A    between atoms: C11_11  and  C13_13 
REMARK    7  A    between atoms: C12_12  and  C14_14 
REMARK    8  A    between atoms: C12_12  and  C15_15 
ROOT
ATOM      1  C1  non d   1       0.548  -3.223  -4.272  0.00  0.00     0.010 C 
ATOM      2  H1  non d   1       1.630  -3.329  -4.108  0.00  0.00     0.035 H 
ENDROOT
BRANCH   1   3
ATOM      3  C2  non d   1       0.073  -2.061  -3.371  0.00  0.00    -0.043 C 
ATOM      4  H2  non d   1       0.594  -1.144  -3.681  0.00  0.00     0.028 H 
ATOM      5  H3  non d   1      -0.997  -1.870  -3.525  0.00  0.00     0.028 H 
BRANCH   3   6
ATOM      6  C4  non d   1       0.346  -2.306  -1.884  0.00  0.00    -0.034 C 
ATOM      7  H4  non d   1       1.399  -2.562  -1.731  0.00  0.00     0.031 H 
ATOM      8  H5  non d   1      -0.227  -3.170  -1.527  0.00  0.00     0.031 H 
BRANCH   6   9
ATOM      9  C8  non d   1      -0.062  -1.118  -1.056  0.00  0.00    -0.084 C 
ATOM     10  C12 non d   1       0.738  -0.187  -0.500  0.00  0.00    -0.082 C 
ATOM     11  H11 non d   1      -1.137  -1.043  -0.893  0.00  0.00     0.058 H 
BRANCH  10  12
ATOM     12  C14 non d   1       0.156   0.924   0.336  0.00  0.00    -0.044 C 
ATOM     13  H17 non d   1      -0.933   0.851   0.425  0.00  0.00     0.028 H 
ATOM     14  H18 non d   1       0.389   1.896  -0.111  0.00  0.00     0.028 H 
ATOM     15  H19 non d   1       0.575   0.895   1.347  0.00  0.00     0.028 H 
ENDBRANCH  10  12
BRANCH  10  16
ATOM     16  C15 non d   1       2.233  -0.133  -0.646  0.00  0.00    -0.044 C 
ATOM     17  H20 non d   1       2.541   0.856  -1.001  0.00  0.00     0.028 H 
ATOM     18  H21 non d   1       2.626  -0.861  -1.359  0.00  0.00     0.028 H 
ATOM     19  H22 non d   1       2.712  -0.316   0.322  0.00  0.00     0.028 H 
ENDBRANCH  10  16
ENDBRANCH   6   9
ENDBRANCH   3   6
ENDBRANCH   1   3
BRANCH   1  20
ATOM     20  C3  non d   1      -0.129  -4.556  -3.959  0.00  0.00    -0.065 A 
ATOM     21  C6  non d   1       0.615  -5.621  -3.574  0.00  0.00    -0.065 A 
ATOM     22  C9  non d   1       0.036  -6.804  -3.289  0.00  0.00    -0.068 A 
ATOM     23  H9  non d   1       1.695  -5.535  -3.488  0.00  0.00     0.062 H 
ATOM     24  C11 non d   1      -1.304  -6.956  -3.377  0.00  0.00    -0.066 A 
ATOM     25  H12 non d   1       0.663  -7.638  -2.985  0.00  0.00     0.062 H 
ATOM     26  C10 non d   1      -2.050  -5.899  -3.769  0.00  0.00    -0.068 A 
ATOM     27  C7  non d   1      -1.472  -4.716  -4.053  0.00  0.00    -0.065 A 
ATOM     28  H13 non d   1      -3.130  -5.993  -3.857  0.00  0.00     0.062 H 
ATOM     29  H10 non d   1      -2.104  -3.888  -4.362  0.00  0.00     0.062 H 
BRANCH  24  30
ATOM     30  C13 non d   1      -1.948  -8.282  -3.078  0.00  0.00    -0.003 C 
ATOM     31  H14 non d   1      -1.276  -9.115  -3.311  0.00  0.00     0.028 H 
ATOM     32  H15 non d   1      -2.854  -8.430  -3.675  0.00  0.00     0.028 H 
ATOM     33  H16 non d   1      -2.219  -8.343  -2.018  0.00  0.00     0.028 H 
ENDBRANCH  24  30
ENDBRANCH   1  20
BRANCH   1  34
ATOM     34  C5  non d   1       0.373  -2.852  -5.751  0.00  0.00    -0.058 C 
ATOM     35  H6  non d   1       0.718  -3.662  -6.402  0.00  0.00     0.024 H 
ATOM     36  H7  non d   1       0.960  -1.959  -5.994  0.00  0.00     0.024 H 
ATOM     37  H8  non d   1      -0.672  -2.638  -5.997  0.00  0.00     0.024 H 
ENDBRANCH   1  34
TORSDOF 8
