@<TRIPOS>MOLECULE
30247
 34 33 0 0 0
SMALL
USER_CHARGES

@<TRIPOS>ATOM
      1 O1          1.1055   -1.3442   -3.1633 O.3     1  noname11   -0.2076
      2 O2          0.9511   -1.2873   -5.4542 O.2     1  noname11   -0.2553
      3 C1         -0.3387   -2.6348   -1.6887 C.3     1  noname11    0.0068
      4 C2         -1.3377   -3.8146   -1.6678 C.3     1  noname11   -0.0260
      5 C3          0.0462   -2.3146   -3.1481 C.3     1  noname11    0.0632
      6 C4         -0.8521   -1.3984   -0.9398 C.2     1  noname11   -0.0834
      7 C5         -1.6444   -4.3141   -0.2790 C.2     1  noname11   -0.0835
      8 C6         -2.0663   -0.6879   -1.4751 C.3     1  noname11   -0.0438
      9 C7         -1.1559   -5.4134    0.3280 C.2     1  noname11   -0.0820
     10 C8         -0.2345   -0.9562    0.1700 C.2     1  noname11   -0.0910
     11 C9         -1.5993   -5.7802    1.7204 C.3     1  noname11   -0.0442
     12 C10        -0.1467   -6.3556   -0.2675 C.3     1  noname11   -0.0442
     13 C11         1.4503   -0.9086   -4.4041 C.2     1  noname11    0.1384
     14 C12         2.5442    0.1095   -4.3038 C.3     1  noname11    0.0220
     15 H1          0.5834   -2.9711   -1.1915 H       1  noname11    0.0375
     16 H2         -0.9527   -4.6305   -2.2894 H       1  noname11    0.0316
     17 H3         -2.2836   -3.5241   -2.1422 H       1  noname11    0.0316
     18 H4          0.4123   -3.2249   -3.6390 H       1  noname11    0.0579
     19 H5         -0.8181   -1.9399   -3.7096 H       1  noname11    0.0579
     20 H6         -2.3580   -3.6957    0.2663 H       1  noname11    0.0575
     21 H7         -2.9227   -1.3660   -1.5303 H       1  noname11    0.0276
     22 H8         -2.3606    0.1527   -0.8370 H       1  noname11    0.0276
     23 H9         -1.8723   -0.2837   -2.4729 H       1  noname11    0.0276
     24 H10         0.6410   -1.4579    0.5717 H       1  noname11    0.0537
     25 H11        -0.5862   -0.0824    0.7101 H       1  noname11    0.0537
     26 H12        -0.7428   -5.7859    2.4024 H       1  noname11    0.0276
     27 H13        -2.3381   -5.0779    2.1207 H       1  noname11    0.0276
     28 H14        -2.0534   -6.7766    1.7226 H       1  noname11    0.0276
     29 H15        -0.6033   -7.3354   -0.4413 H       1  noname11    0.0276
     30 H16         0.2690   -6.0041   -1.2145 H       1  noname11    0.0276
     31 H17         0.6969   -6.4856    0.4191 H       1  noname11    0.0276
     32 H18         2.2050    0.9607   -3.7082 H       1  noname11    0.0336
     33 H19         3.4325   -0.3439   -3.8569 H       1  noname11    0.0336
     34 H20         2.8003    0.4662   -5.3056 H       1  noname11    0.0336
@<TRIPOS>BOND
     1     1     5    1
     2     1    13    1
     3     2    13    2
     4     3     4    1
     5     3     5    1
     6     3     6    1
     7     3    15    1
     8     4     7    1
     9     4    16    1
    10     4    17    1
    11     5    18    1
    12     5    19    1
    13     6     8    1
    14     6    10    2
    15     7     9    2
    16     7    20    1
    17     8    21    1
    18     8    22    1
    19     8    23    1
    20     9    11    1
    21     9    12    1
    22    10    24    1
    23    10    25    1
    24    11    26    1
    25    11    27    1
    26    11    28    1
    27    12    29    1
    28    12    30    1
    29    12    31    1
    30    13    14    1
    31    14    32    1
    32    14    33    1
    33    14    34    1
