REMARK  4 active torsions:
REMARK  status: ('A' for Active; 'I' for Inactive)
REMARK    1  A    between atoms: C1_1  and  C5_5 
REMARK    2  A    between atoms: C5_5  and  C8_8 
REMARK    3  A    between atoms: C5_5  and  C9_9 
REMARK    4  A    between atoms: C6_6  and  C10_10 
ROOT
ATOM      1  C1  non d   1      -0.625   2.332   0.963  0.00  0.00    -0.017 C 
ATOM      2  C2  non d   1       0.640   2.062   0.155  0.00  0.00    -0.014 C 
ATOM      3  C3  non d   1      -0.262   3.201  -0.229  0.00  0.00    -0.039 C 
ATOM      4  C4  non d   1      -1.547   1.129   0.745  0.00  0.00    -0.028 C 
ATOM      5  C6  non d   1       0.430   0.731  -0.446  0.00  0.00    -0.077 C 
ATOM      6  C7  non d   1      -0.763   0.190  -0.139  0.00  0.00    -0.081 C 
ATOM      7  H1  non d   1       1.604   2.268   0.603  0.00  0.00     0.035 H 
ATOM      8  H2  non d   1      -0.854   3.115  -1.134  0.00  0.00     0.028 H 
ATOM      9  H3  non d   1       0.100   4.207  -0.052  0.00  0.00     0.028 H 
ATOM     10  H4  non d   1      -1.801   0.624   1.681  0.00  0.00     0.032 H 
ATOM     11  H5  non d   1      -2.474   1.442   0.252  0.00  0.00     0.032 H 
ATOM     12  H7  non d   1      -1.128  -0.770  -0.472  0.00  0.00     0.058 H 
ENDROOT
BRANCH   1  13
ATOM     13  C5  non d   1      -0.535   2.946   2.347  0.00  0.00    -0.041 C 
ATOM     14  H6  non d   1       0.163   3.793   2.308  0.00  0.00     0.030 H 
BRANCH  13  15
ATOM     15  C8  non d   1      -1.891   3.500   2.787  0.00  0.00    -0.062 C 
ATOM     16  H8  non d   1      -2.274   4.216   2.053  0.00  0.00     0.023 H 
ATOM     17  H9  non d   1      -2.636   2.704   2.895  0.00  0.00     0.023 H 
ATOM     18  H10 non d   1      -1.806   4.014   3.750  0.00  0.00     0.023 H 
ENDBRANCH  13  15
BRANCH  13  19
ATOM     19  C9  non d   1       0.016   1.968   3.385  0.00  0.00    -0.062 C 
ATOM     20  H11 non d   1       0.983   1.563   3.068  0.00  0.00     0.023 H 
ATOM     21  H12 non d   1      -0.659   1.123   3.552  0.00  0.00     0.023 H 
ATOM     22  H13 non d   1       0.163   2.470   4.347  0.00  0.00     0.023 H 
ENDBRANCH  13  19
ENDBRANCH   1  13
BRANCH   5  23
ATOM     23  C10 non d   1       1.478   0.114  -1.305  0.00  0.00    -0.044 C 
ATOM     24  H14 non d   1       1.166  -0.865  -1.682  0.00  0.00     0.028 H 
ATOM     25  H15 non d   1       2.404  -0.022  -0.737  0.00  0.00     0.028 H 
ATOM     26  H16 non d   1       1.691   0.756  -2.166  0.00  0.00     0.028 H 
ENDBRANCH   5  23
TORSDOF 4
