@<TRIPOS>MOLECULE
92139
37 37 1
SMALL
USER_CHARGES
@<TRIPOS>ATOM
1	C1     0.5480    -3.2227    -4.2717	C.3	1	noname	0.0100
2	C2     0.0731    -2.0607    -3.3713	C.3	1	noname	-0.0431
3	C3    -0.1291    -4.5560    -3.9593	C.2	1	noname	-0.0647
4	C4     0.3464    -2.3064    -1.8837	C.3	1	noname	-0.0342
5	C5     0.3733    -2.8516    -5.7506	C.3	1	noname	-0.0584
6	C6     0.6147    -5.6207    -3.5738	C.2	1	noname	-0.0652
7	C7    -1.4716    -4.7157    -4.0531	C.2	1	noname	-0.0652
8	C8    -0.0621    -1.1180    -1.0559	C.2	1	noname	-0.0839
9	C9     0.0360    -6.8042    -3.2894	C.2	1	noname	-0.0676
10	C10    -2.0504    -5.8992    -3.7688	C.2	1	noname	-0.0676
11	C11    -1.3045    -6.9563    -3.3768	C.2	1	noname	-0.0659
12	C12     0.7375    -0.1870    -0.4999	C.2	1	noname	-0.0822
13	C13    -1.9482    -8.2821    -3.0776	C.3	1	noname	-0.0034
14	C14     0.1562     0.9238     0.3355	C.3	1	noname	-0.0442
15	C15     2.2331    -0.1334    -0.6457	C.3	1	noname	-0.0442
16	H1     1.6301    -3.3291    -4.1081	H	1	noname	0.0349
17	H2     0.5940    -1.1443    -3.6810	H	1	noname	0.0276
18	H3    -0.9970    -1.8700    -3.5253	H	1	noname	0.0276
19	H4     1.3994    -2.5619    -1.7308	H	1	noname	0.0310
20	H5    -0.2269    -3.1704    -1.5272	H	1	noname	0.0310
21	H6     0.7175    -3.6622    -6.4025	H	1	noname	0.0236
22	H7     0.9599    -1.9590    -5.9942	H	1	noname	0.0236
23	H8    -0.6725    -2.6382    -5.9970	H	1	noname	0.0236
24	H9     1.6950    -5.5354    -3.4882	H	1	noname	0.0625
25	H10    -2.1044    -3.8879    -4.3617	H	1	noname	0.0625
26	H11    -1.1374    -1.0431    -0.8928	H	1	noname	0.0575
27	H12     0.6632    -7.6382    -2.9847	H	1	noname	0.0625
28	H13    -3.1298    -5.9929    -3.8567	H	1	noname	0.0625
29	H14    -1.2755    -9.1148    -3.3112	H	1	noname	0.0279
30	H15    -2.8544    -8.4303    -3.6755	H	1	noname	0.0279
31	H16    -2.2188    -8.3428    -2.0184	H	1	noname	0.0279
32	H17    -0.9328     0.8512     0.4248	H	1	noname	0.0276
33	H18     0.3889     1.8962    -0.1108	H	1	noname	0.0276
34	H19     0.5749     0.8952     1.3468	H	1	noname	0.0276
35	H20     2.5407     0.8562    -1.0009	H	1	noname	0.0276
36	H21     2.6261    -0.8608    -1.3595	H	1	noname	0.0276
37	H22     2.7124    -0.3162     0.3215	H	1	noname	0.0276
@<TRIPOS>BOND
1	1	2	1
2	1	3	1
3	1	5	1
4	1	16	1
5	2	4	1
6	2	17	1
7	2	18	1
8	3	6	2
9	3	7	1
10	4	8	1
11	4	19	1
12	4	20	1
13	5	21	1
14	5	22	1
15	5	23	1
16	6	9	1
17	6	24	1
18	7	10	2
19	7	25	1
20	8	12	2
21	8	26	1
22	9	11	2
23	9	27	1
24	10	11	1
25	10	28	1
26	11	13	1
27	12	14	1
28	12	15	1
29	13	29	1
30	13	30	1
31	13	31	1
32	14	32	1
33	14	33	1
34	14	34	1
35	15	35	1
36	15	36	1
37	15	37	1
@<TRIPOS>SUBSTRUCTURE
1	noname	1
