@<TRIPOS>MOLECULE
522296
 39 40 0 0 0
SMALL
USER_CHARGES

@<TRIPOS>ATOM
      1 C1         -0.0583   -3.9835    0.4851 C.3     1  noname1    -0.0251
      2 C2         -0.8578   -2.7034    0.9044 C.3     1  noname1    -0.0114
      3 C3          1.2351   -3.6022   -0.2847 C.3     1  noname1    -0.0435
      4 C4         -0.9591   -4.8863   -0.3953 C.3     1  noname1    -0.0438
      5 C5         -0.9865   -1.6875   -0.2558 C.3     1  noname1    -0.0247
      6 C6          1.0328   -2.5847   -1.4085 C.3     1  noname1    -0.0312
      7 C7         -2.2494   -3.0377    1.4357 C.2     1  noname1    -0.0774
      8 C8          0.3872   -4.7720    1.7430 C.3     1  noname1    -0.0590
      9 C9          0.3610   -1.3435   -0.8628 C.2     1  noname1    -0.0730
     10 C10        -2.2719   -5.2786    0.2892 C.3     1  noname1    -0.0342
     11 C11        -2.8658   -4.1975    1.1427 C.2     1  noname1    -0.0811
     12 C12        -2.8930   -2.0146    2.3313 C.3     1  noname1    -0.0436
     13 C13         0.8920   -0.0964   -0.9023 C.2     1  noname1    -0.0749
     14 C14         2.1920    0.2507   -1.5890 C.3     1  noname1    -0.0439
     15 C15         0.2550    1.1130   -0.2582 C.3     1  noname1    -0.0439
     16 H1         -0.2939   -2.2172    1.7141 H       1  noname1     0.0357
     17 H2          1.9660   -3.1834    0.4216 H       1  noname1     0.0275
     18 H3          1.6998   -4.5050   -0.7019 H       1  noname1     0.0275
     19 H4         -1.2046   -4.3754   -1.3340 H       1  noname1     0.0275
     20 H5         -0.4221   -5.7985   -0.6855 H       1  noname1     0.0275
     21 H6         -1.5196   -0.7976    0.0874 H       1  noname1     0.0319
     22 H7         -1.6227   -2.0980   -1.0521 H       1  noname1     0.0319
     23 H8          2.0108   -2.3840   -1.8512 H       1  noname1     0.0313
     24 H9          0.4192   -3.0088   -2.2116 H       1  noname1     0.0313
     25 H10         1.0537   -4.1666    2.3683 H       1  noname1     0.0236
     26 H11         0.9330   -5.6796    1.4606 H       1  noname1     0.0236
     27 H12        -0.4524   -5.0768    2.3745 H       1  noname1     0.0236
     28 H13        -2.9984   -5.5754   -0.4762 H       1  noname1     0.0310
     29 H14        -2.1065   -6.1603    0.9200 H       1  noname1     0.0310
     30 H15        -3.8515   -4.4069    1.5533 H       1  noname1     0.0575
     31 H16        -3.0730   -1.0813    1.7899 H       1  noname1     0.0276
     32 H17        -3.8560   -2.3596    2.7226 H       1  noname1     0.0276
     33 H18        -2.2466   -1.8018    3.1889 H       1  noname1     0.0276
     34 H19         2.5004   -0.4772   -2.3416 H       1  noname1     0.0276
     35 H20         2.9928    0.3523   -0.8497 H       1  noname1     0.0276
     36 H21         2.0937    1.2046   -2.1203 H       1  noname1     0.0276
     37 H22         1.0245    1.7484    0.1956 H       1  noname1     0.0276
     38 H23        -0.4363    0.8646    0.5498 H       1  noname1     0.0276
     39 H24        -0.2764    1.7047   -1.0102 H       1  noname1     0.0276
@<TRIPOS>BOND
     1     1     2    1
     2     1     3    1
     3     1     4    1
     4     1     8    1
     5     2     5    1
     6     2     7    1
     7     2    16    1
     8     3     6    1
     9     3    17    1
    10     3    18    1
    11     4    10    1
    12     4    19    1
    13     4    20    1
    14     5     9    1
    15     5    21    1
    16     5    22    1
    17     6     9    1
    18     6    23    1
    19     6    24    1
    20     7    11    2
    21     7    12    1
    22     8    25    1
    23     8    26    1
    24     8    27    1
    25     9    13    2
    26    10    11    1
    27    10    28    1
    28    10    29    1
    29    11    30    1
    30    12    31    1
    31    12    32    1
    32    12    33    1
    33    13    14    1
    34    13    15    1
    35    14    34    1
    36    14    35    1
    37    14    36    1
    38    15    37    1
    39    15    38    1
    40    15    39    1
