@<TRIPOS>MOLECULE
6549
 29 28 0 0 0
SMALL
USER_CHARGES

@<TRIPOS>ATOM
      1 O1          1.6176   -2.0880    1.0470 O.3     1  noname1    -0.3860
      2 C1          0.3957   -2.5469    1.6311 C.3     1  noname1     0.0801
      3 C2          0.1894   -4.0338    1.2587 C.3     1  noname1    -0.0173
      4 C3          0.1331   -4.3195   -0.2470 C.3     1  noname1    -0.0318
      5 C4         -0.7506   -1.6609    1.1245 C.3     1  noname1    -0.0324
      6 C5          0.5646   -2.3014    3.1161 C.2     1  noname1    -0.0744
      7 C6         -0.0333   -5.7918   -0.5130 C.2     1  noname1    -0.0838
      8 C7         -1.1564   -6.4403   -0.8784 C.2     1  noname1    -0.0822
      9 C8         -1.1351   -7.9243   -1.1380 C.3     1  noname1    -0.0442
     10 C9         -2.5074   -5.8023   -1.0495 C.3     1  noname1    -0.0442
     11 C10         0.3737   -3.1594    4.1289 C.2     1  noname1    -0.0864
     12 H1          1.0191   -4.6220    1.6760 H       1  noname1     0.0302
     13 H2         -0.7340   -4.4051    1.7235 H       1  noname1     0.0302
     14 H3          1.0646   -3.9987   -0.7282 H       1  noname1     0.0311
     15 H4         -0.6648   -3.7453   -0.7241 H       1  noname1     0.0311
     16 H5         -0.7993   -1.6475    0.0306 H       1  noname1     0.0263
     17 H6         -1.7191   -1.9943    1.5125 H       1  noname1     0.0263
     18 H7         -0.6034   -0.6155    1.4233 H       1  noname1     0.0263
     19 H8          0.8955   -1.2950    3.3737 H       1  noname1     0.0599
     20 H9          0.8857   -6.3683   -0.4009 H       1  noname1     0.0575
     21 H10         1.4658   -1.9402    0.0996 H       1  noname1     0.2112
     22 H11        -1.4584   -8.1336   -2.1630 H       1  noname1     0.0276
     23 H12        -0.1363   -8.3549   -1.0106 H       1  noname1     0.0276
     24 H13        -1.8100   -8.4403   -0.4473 H       1  noname1     0.0276
     25 H14        -3.2553   -6.3415   -0.4582 H       1  noname1     0.0276
     26 H15        -2.5393   -4.7602   -0.7233 H       1  noname1     0.0276
     27 H16        -2.8095   -5.8371   -2.1012 H       1  noname1     0.0276
     28 H17         0.5458   -2.8434    5.1537 H       1  noname1     0.0535
     29 H18         0.0546   -4.1845    3.9779 H       1  noname1     0.0535
@<TRIPOS>BOND
     1     1     2    1
     2     1    21    1
     3     2     3    1
     4     2     5    1
     5     2     6    1
     6     3     4    1
     7     3    12    1
     8     3    13    1
     9     4     7    1
    10     4    14    1
    11     4    15    1
    12     5    16    1
    13     5    17    1
    14     5    18    1
    15     6    11    2
    16     6    19    1
    17     7     8    2
    18     7    20    1
    19     8     9    1
    20     8    10    1
    21     9    22    1
    22     9    23    1
    23     9    24    1
    24    10    25    1
    25    10    26    1
    26    10    27    1
    27    11    28    1
    28    11    29    1
