@<TRIPOS>MOLECULE
18818
 26 27 0 0 0
SMALL
USER_CHARGES

@<TRIPOS>ATOM
      1 C1          3.5992    0.7255   -0.4717 C.3     1  noname11   -0.0199
      2 C2          2.1796    1.2134   -0.2566 C.3     1  noname11   -0.0140
      3 C3          2.8145    1.3560   -1.6064 C.3     1  noname11   -0.0396
      4 C4          3.5931   -0.7887   -0.3607 C.3     1  noname11   -0.0430
      5 C5          4.7577    1.5031    0.1245 C.3     1  noname11   -0.0408
      6 C6          1.3662    0.0299    0.0528 C.2     1  noname11   -0.0826
      7 C7          2.2716   -1.1456    0.3391 C.3     1  noname11   -0.0314
      8 C8          4.8929    1.2724    1.6302 C.3     1  noname11   -0.0622
      9 C9          6.0660    1.1795   -0.5970 C.3     1  noname11   -0.0622
     10 C10         0.0302   -0.0457    0.0320 C.2     1  noname11   -0.0905
     11 H1          2.0148    2.0985    0.3459 H       1  noname11    0.0354
     12 H2          2.4633    0.7245   -2.4155 H       1  noname11    0.0279
     13 H3          3.0803    2.3556   -1.9327 H       1  noname11    0.0279
     14 H4          4.4420   -1.1904    0.2003 H       1  noname11    0.0276
     15 H5          3.6273   -1.2344   -1.3625 H       1  noname11    0.0276
     16 H6          4.5678    2.5757   -0.0175 H       1  noname11    0.0303
     17 H7          2.4335   -1.2193    1.4209 H       1  noname11    0.0312
     18 H8          1.8737   -2.0978   -0.0244 H       1  noname11    0.0312
     19 H9          3.9562    1.5052    2.1474 H       1  noname11    0.0233
     20 H10         5.1519    0.2349    1.8638 H       1  noname11    0.0233
     21 H11         5.6762    1.9131    2.0493 H       1  noname11    0.0233
     22 H12         5.9719    1.3627   -1.6728 H       1  noname11    0.0233
     23 H13         6.3543    0.1316   -0.4634 H       1  noname11    0.0233
     24 H14         6.8824    1.8035   -0.2183 H       1  noname11    0.0233
     25 H15        -0.4871   -0.9736    0.2515 H       1  noname11    0.0537
     26 H16        -0.5734    0.8237   -0.2077 H       1  noname11    0.0537
@<TRIPOS>BOND
     1     1     2    1
     2     1     3    1
     3     1     4    1
     4     1     5    1
     5     2     3    1
     6     2     6    1
     7     2    11    1
     8     3    12    1
     9     3    13    1
    10     4     7    1
    11     4    14    1
    12     4    15    1
    13     5     8    1
    14     5     9    1
    15     5    16    1
    16     6     7    1
    17     6    10    2
    18     7    17    1
    19     7    18    1
    20     8    19    1
    21     8    20    1
    22     8    21    1
    23     9    22    1
    24     9    23    1
    25     9    24    1
    26    10    25    1
    27    10    26    1
