REMARK  5 active torsions:
REMARK  status: ('A' for Active; 'I' for Inactive)
REMARK    1  A    between atoms: C1_2  and  C2_3 
REMARK    2  A    between atoms: C1_2  and  C3_4 
REMARK    3  A    between atoms: C2_3  and  C4_5 
REMARK    4  A    between atoms: C5_6  and  C8_9 
REMARK    5  A    between atoms: C5_6  and  C9_10 
ROOT
ATOM      1  C2  non d   1       2.472  -3.895  -0.549  0.00  0.00    -0.031 C 
ATOM      2  H3  non d   1       2.758  -4.538  -1.388  0.00  0.00     0.031 H 
ATOM      3  H4  non d   1       2.510  -2.869  -0.938  0.00  0.00     0.031 H 
ENDROOT
BRANCH   1   4
ATOM      4  C1  non d   1       1.050  -4.223  -0.084  0.00  0.00     0.021 C 
ATOM      5  H1  non d   1       0.761  -3.555   0.739  0.00  0.00     0.032 H 
ATOM      6  H2  non d   1       1.017  -5.239   0.331  0.00  0.00     0.032 H 
BRANCH   4   7
ATOM      7  C3  non d   1       0.054  -4.106  -1.196  0.00  0.00     0.001 A 
ATOM      8  C6  non d   1      -0.669  -3.018  -1.504  0.00  0.00     0.002 A 
ATOM      9  C10 non d   1      -1.467  -3.308  -2.538  0.00  0.00     0.034 A 
ATOM     10  H6  non d   1      -0.623  -2.062  -1.005  0.00  0.00     0.065 H 
ATOM     11  O1  non d   1      -1.307  -4.659  -2.974  0.00  0.00    -0.389 OA
ATOM     12  H14 non d   1      -2.171  -2.649  -3.026  0.00  0.00     0.090 H 
ATOM     13  C7  non d   1      -0.306  -5.090  -2.034  0.00  0.00     0.022 A 
ATOM     14  H7  non d   1       0.067  -6.105  -2.057  0.00  0.00     0.090 H 
ENDBRANCH   4   7
ENDBRANCH   1   4
BRANCH   1  15
ATOM     15  C4  non d   1       3.457  -3.996   0.585  0.00  0.00    -0.084 C 
ATOM     16  C5  non d   1       4.335  -4.990   0.824  0.00  0.00    -0.082 C 
ATOM     17  H5  non d   1       3.443  -3.142   1.262  0.00  0.00     0.058 H 
BRANCH  16  18
ATOM     18  C8  non d   1       5.281  -4.912   1.994  0.00  0.00    -0.044 C 
ATOM     19  H8  non d   1       6.318  -4.957   1.645  0.00  0.00     0.028 H 
ATOM     20  H9  non d   1       5.163  -3.985   2.565  0.00  0.00     0.028 H 
ATOM     21  H10 non d   1       5.107  -5.749   2.679  0.00  0.00     0.028 H 
ENDBRANCH  16  18
BRANCH  16  22
ATOM     22  C9  non d   1       4.468  -6.243   0.003  0.00  0.00    -0.044 C 
ATOM     23  H11 non d   1       4.403  -7.124   0.650  0.00  0.00     0.028 H 
ATOM     24  H12 non d   1       3.689  -6.350  -0.755  0.00  0.00     0.028 H 
ATOM     25  H13 non d   1       5.439  -6.259  -0.504  0.00  0.00     0.028 H 
ENDBRANCH  16  22
ENDBRANCH   1  15
TORSDOF 5
