@<TRIPOS>MOLECULE
443162
 29 29 0 0 0
SMALL
USER_CHARGES

@<TRIPOS>ATOM
      1 O1          2.3808    1.7872    2.4616 O.3     1  noname1    -0.3900
      2 C1          1.0497    2.2807    0.4465 C.3     1  noname1    -0.0092
      3 C2          1.6553    2.8149    1.7896 C.3     1  noname1     0.0624
      4 C3          2.0825    1.9885   -0.6629 C.3     1  noname1    -0.0437
      5 C4          0.1544    1.0260    0.6042 C.3     1  noname1    -0.0292
      6 C5          2.9418    0.7527   -0.3883 C.3     1  noname1    -0.0319
      7 C6          2.1408   -0.4276    0.0993 C.2     1  noname1    -0.0800
      8 C7          0.8748   -0.2914    0.5307 C.2     1  noname1    -0.0824
      9 C8          0.5475    3.2961    2.7427 C.3     1  noname1    -0.0361
     10 C9          2.6247    3.9834    1.5534 C.3     1  noname1    -0.0361
     11 C10         2.8452   -1.7521    0.0912 C.3     1  noname1    -0.0439
     12 H1          0.4051    3.0856    0.0639 H       1  noname1     0.0335
     13 H2          1.5339    1.8230   -1.6015 H       1  noname1     0.0274
     14 H3          2.7237    2.8543   -0.8569 H       1  noname1     0.0274
     15 H4         -0.4176    1.0627    1.5351 H       1  noname1     0.0313
     16 H5         -0.5905    1.0280   -0.2028 H       1  noname1     0.0313
     17 H6          3.7195    0.9890    0.3469 H       1  noname1     0.0312
     18 H7          3.4583    0.4845   -1.3182 H       1  noname1     0.0312
     19 H8          0.3184   -1.1623    0.8683 H       1  noname1     0.0575
     20 H9         -0.0714    2.4681    3.1011 H       1  noname1     0.0259
     21 H10         0.9786    3.7470    3.6447 H       1  noname1     0.0259
     22 H11        -0.0979    4.0412    2.2664 H       1  noname1     0.0259
     23 H12         2.1600    4.7791    0.9623 H       1  noname1     0.0259
     24 H13         3.5397    3.6514    1.0518 H       1  noname1     0.0259
     25 H14         2.9563    4.4149    2.5054 H       1  noname1     0.0259
     26 H15         2.7180    2.1454    3.2997 H       1  noname1     0.2108
     27 H16         3.1401   -2.0196   -0.9285 H       1  noname1     0.0276
     28 H17         3.7447   -1.7066    0.7136 H       1  noname1     0.0276
     29 H18         2.2123   -2.5577    0.4779 H       1  noname1     0.0276
@<TRIPOS>BOND
     1     1     3    1
     2     1    26    1
     3     2     3    1
     4     2     4    1
     5     2     5    1
     6     2    12    1
     7     3     9    1
     8     3    10    1
     9     4     6    1
    10     4    13    1
    11     4    14    1
    12     5     8    1
    13     5    15    1
    14     5    16    1
    15     6     7    1
    16     6    17    1
    17     6    18    1
    18     7     8    2
    19     7    11    1
    20     8    19    1
    21     9    20    1
    22     9    21    1
    23     9    22    1
    24    10    23    1
    25    10    24    1
    26    10    25    1
    27    11    27    1
    28    11    28    1
    29    11    29    1
