REMARK  5 active torsions:
REMARK  status: ('A' for Active; 'I' for Inactive)
REMARK    1  A    between atoms: C2_2  and  C6_6 
REMARK    2  A    between atoms: C6_6  and  C12_12 
REMARK    3  A    between atoms: C6_6  and  C13_13 
REMARK    4  A    between atoms: C7_7  and  C14_14 
REMARK    5  A    between atoms: C11_11  and  C15_15 
ROOT
ATOM      1  C1  non d   1       1.092   1.343   2.326  0.00  0.00    -0.013 C 
ATOM      2  C2  non d   1       2.156   2.401   2.772  0.00  0.00    -0.029 C 
ATOM      3  C3  non d   1      -0.348   1.956   2.204  0.00  0.00    -0.014 C 
ATOM      4  C4  non d   1      -1.333   0.791   1.964  0.00  0.00    -0.042 C 
ATOM      5  C5  non d   1       1.642   3.178   4.022  0.00  0.00    -0.031 C 
ATOM      6  C7  non d   1      -0.750   2.859   3.350  0.00  0.00    -0.077 C 
ATOM      7  C8  non d   1       1.368   0.632   1.009  0.00  0.00    -0.080 C 
ATOM      8  C9  non d   1      -1.042   0.076   0.642  0.00  0.00    -0.032 C 
ATOM      9  C10 non d   1       0.175   3.399   4.154  0.00  0.00    -0.081 C 
ATOM     10  C11 non d   1       0.413   0.050   0.258  0.00  0.00    -0.079 C 
ATOM     11  H1  non d   1       1.085   0.570   3.109  0.00  0.00     0.035 H 
ATOM     12  H2  non d   1       2.270   3.120   1.948  0.00  0.00     0.031 H 
ATOM     13  H3  non d   1      -0.376   2.603   1.312  0.00  0.00     0.035 H 
ATOM     14  H4  non d   1      -2.373   1.133   1.934  0.00  0.00     0.028 H 
ATOM     15  H5  non d   1      -1.267   0.075   2.793  0.00  0.00     0.028 H 
ATOM     16  H6  non d   1       2.118   4.166   4.037  0.00  0.00     0.031 H 
ATOM     17  H7  non d   1       1.957   2.661   4.938  0.00  0.00     0.031 H 
ATOM     18  H9  non d   1       2.378   0.598   0.628  0.00  0.00     0.058 H 
ATOM     19  H10 non d   1      -1.437  -0.945   0.692  0.00  0.00     0.031 H 
ATOM     20  H11 non d   1      -1.592   0.592  -0.156  0.00  0.00     0.031 H 
ATOM     21  H12 non d   1      -0.131   4.061   4.962  0.00  0.00     0.058 H 
ENDROOT
BRANCH   2  22
ATOM     22  C6  non d   1       3.593   1.856   3.149  0.00  0.00    -0.043 C 
ATOM     23  H8  non d   1       3.488   1.229   4.046  0.00  0.00     0.030 H 
BRANCH  22  24
ATOM     24  C12 non d   1       4.550   3.010   3.510  0.00  0.00    -0.062 C 
ATOM     25  H13 non d   1       4.227   3.546   4.408  0.00  0.00     0.023 H 
ATOM     26  H14 non d   1       4.626   3.729   2.687  0.00  0.00     0.023 H 
ATOM     27  H15 non d   1       5.557   2.635   3.724  0.00  0.00     0.023 H 
ENDBRANCH  22  24
BRANCH  22  28
ATOM     28  C13 non d   1       4.304   0.994   2.108  0.00  0.00    -0.062 C 
ATOM     29  H16 non d   1       3.831   0.013   2.017  0.00  0.00     0.023 H 
ATOM     30  H17 non d   1       4.338   1.489   1.132  0.00  0.00     0.023 H 
ATOM     31  H18 non d   1       5.340   0.792   2.406  0.00  0.00     0.023 H 
ENDBRANCH  22  28
ENDBRANCH   2  22
BRANCH   6  32
ATOM     32  C14 non d   1      -2.201   3.217   3.514  0.00  0.00    -0.044 C 
ATOM     33  H19 non d   1      -2.347   4.021   4.243  0.00  0.00     0.028 H 
ATOM     34  H20 non d   1      -2.776   2.353   3.862  0.00  0.00     0.028 H 
ATOM     35  H21 non d   1      -2.619   3.563   2.562  0.00  0.00     0.028 H 
ENDBRANCH   6  32
BRANCH  10  36
ATOM     36  C15 non d   1       0.731  -0.643  -1.037  0.00  0.00    -0.044 C 
ATOM     37  H22 non d   1       0.203  -0.160  -1.866  0.00  0.00     0.028 H 
ATOM     38  H23 non d   1       1.801  -0.623  -1.266  0.00  0.00     0.028 H 
ATOM     39  H24 non d   1       0.420  -1.692  -0.991  0.00  0.00     0.028 H 
ENDBRANCH  10  36
TORSDOF 5
