@<TRIPOS>MOLECULE
5315347
 39 40 0 0 0
SMALL
USER_CHARGES

@<TRIPOS>ATOM
      1 C1          8.4154    1.7359    0.0000 C.3     1  noname1    -0.0254
      2 C2          8.4149    0.1953    0.0000 C.3     1  noname1    -0.0285
      3 C3          7.0812    0.9653    0.0000 C.3     1  noname1    -0.0142
      4 C4          8.4149   -1.3448    0.0000 C.3     1  noname1    -0.0456
      5 C5          9.9554    1.7359    0.0000 C.3     1  noname1    -0.0590
      6 C6          7.6453    3.0696    0.0000 C.3     1  noname1    -0.0590
      7 C7          5.7474    0.1953    0.0000 C.2     1  noname1    -0.0799
      8 C8          7.0812   -2.1148    0.0000 C.3     1  noname1    -0.0320
      9 C9          4.4137    0.9653    0.0000 C.2     1  noname1    -0.0783
     10 C10         5.7474   -1.3448    0.0000 C.2     1  noname1    -0.0800
     11 C11         3.0801    0.1953    0.0000 C.3     1  noname1    -0.0288
     12 C12         3.0801   -1.3448    0.0000 C.3     1  noname1    -0.0311
     13 C13         4.4137    2.5053    0.0000 C.3     1  noname1    -0.0439
     14 C14         4.4137   -2.1148    0.0000 C.2     1  noname1    -0.0824
     15 C15         5.3330    1.0060    0.0000 C.3     1  noname1    -0.0439
     16 H1          9.3697    0.1951    0.0000 H       1  noname1     0.0314
     17 H2          6.6037    1.7921    0.0000 H       1  noname1     0.0354
     18 H3          8.7415   -2.2420    0.0000 H       1  noname1     0.0273
     19 H4          9.3552   -1.1790    0.0000 H       1  noname1     0.0273
     20 H5          9.9554    0.7811    0.0000 H       1  noname1     0.0236
     21 H6         10.9102    1.7359    0.0000 H       1  noname1     0.0236
     22 H7          9.9554    2.6907    0.0000 H       1  noname1     0.0236
     23 H8          8.4722    3.5470    0.0000 H       1  noname1     0.0236
     24 H9          7.1679    3.8966    0.0000 H       1  noname1     0.0236
     25 H10         6.8183    2.5922    0.0000 H       1  noname1     0.0236
     26 H11         6.3614   -0.5361    0.0000 H       1  noname1     0.0578
     27 H12         6.4675   -2.8463    0.0000 H       1  noname1     0.0312
     28 H13         7.6949   -2.8463    0.0000 H       1  noname1     0.0312
     29 H14         2.7536    1.0925    0.0000 H       1  noname1     0.0315
     30 H15         2.1397    0.0294    0.0000 H       1  noname1     0.0315
     31 H16         2.1397   -1.1790    0.0000 H       1  noname1     0.0313
     32 H17         2.7536   -2.2420    0.0000 H       1  noname1     0.0313
     33 H18         5.3686    2.5053    0.0000 H       1  noname1     0.0276
     34 H19         4.4137    3.4601    0.0000 H       1  noname1     0.0276
     35 H20         3.4589    2.5053    0.0000 H       1  noname1     0.0276
     36 H21         4.4137   -3.0696    0.0000 H       1  noname1     0.0575
     37 H22         6.2733    1.1718    0.0000 H       1  noname1     0.0276
     38 H23         5.1671    1.9463    0.0000 H       1  noname1     0.0276
     39 H24         4.3926    0.8402    0.0000 H       1  noname1     0.0276
@<TRIPOS>BOND
     1     1     2    1
     2     1     3    1
     3     1     5    1
     4     1     6    1
     5     2     3    1
     6     2     4    1
     7     2    16    1
     8     3     7    1
     9     3    17    1
    10     4     8    1
    11     4    18    1
    12     4    19    1
    13     5    20    1
    14     5    21    1
    15     5    22    1
    16     6    23    1
    17     6    24    1
    18     6    25    1
    19     7     9    2
    20     7    26    1
    21     8    10    1
    22     8    27    1
    23     8    28    1
    24     9    11    1
    25     9    13    1
    26    10    14    2
    27    10    15    1
    28    11    12    1
    29    11    29    1
    30    11    30    1
    31    12    14    1
    32    12    31    1
    33    12    32    1
    34    13    33    1
    35    13    34    1
    36    13    35    1
    37    14    36    1
    38    15    37    1
    39    15    38    1
    40    15    39    1
