@<TRIPOS>MOLECULE
15094
 39 40 0 0 0
SMALL
USER_CHARGES

@<TRIPOS>ATOM
      1 C1         -1.8120    1.0771    1.4307 C.3     1  noname11   -0.0134
      2 C2         -3.3215    0.7384    1.2055 C.3     1  noname11   -0.0319
      3 C3         -1.4814    2.5761    1.2167 C.3     1  noname11   -0.0137
      4 C4         -4.2172    1.7120    2.0095 C.3     1  noname11   -0.0459
      5 C5         -3.7748    0.4979   -0.2733 C.3     1  noname11   -0.0437
      6 C6          0.0354    2.7932    1.3482 C.3     1  noname11   -0.0424
      7 C7         -2.3629    3.4084    2.1340 C.2     1  noname11   -0.0826
      8 C8         -3.8385    3.1917    1.9015 C.3     1  noname11   -0.0317
      9 C9         -0.8657    0.1566    0.6925 C.2     1  noname11   -0.0799
     10 C10         0.7968    1.9768    0.2981 C.3     1  noname11   -0.0317
     11 C11         0.3027    0.5584    0.1612 C.2     1  noname11   -0.0785
     12 C12        -4.0650    1.7406   -1.1126 C.3     1  noname11   -0.0625
     13 C13        -5.0181   -0.4086   -0.3098 C.3     1  noname11   -0.0625
     14 C14        -1.9280    4.2581    3.0791 C.2     1  noname11   -0.0905
     15 C15         1.1999   -0.3801   -0.5926 C.3     1  noname11   -0.0439
     16 H1         -1.6257    0.8617    2.4963 H       1  noname11    0.0355
     17 H2         -3.4541   -0.2407    1.6936 H       1  noname11    0.0311
     18 H3         -1.7341    2.8668    0.1912 H       1  noname11    0.0355
     19 H4         -5.2718    1.5858    1.7429 H       1  noname11    0.0273
     20 H5         -4.1452    1.4285    3.0693 H       1  noname11    0.0273
     21 H6         -2.9874   -0.0606   -0.7927 H       1  noname11    0.0300
     22 H7          0.3744    2.4985    2.3504 H       1  noname11    0.0276
     23 H8          0.2900    3.8524    1.2212 H       1  noname11    0.0276
     24 H9         -4.0997    3.5893    0.9161 H       1  noname11    0.0312
     25 H10        -4.4396    3.7588    2.6231 H       1  noname11    0.0312
     26 H11        -1.1611   -0.8879    0.6153 H       1  noname11    0.0578
     27 H12         1.8598    1.9765    0.5676 H       1  noname11    0.0312
     28 H13         0.7124    2.4697   -0.6785 H       1  noname11    0.0312
     29 H14        -3.2025    2.4034   -1.1808 H       1  noname11    0.0233
     30 H15        -4.9187    2.3040   -0.7249 H       1  noname11    0.0233
     31 H16        -4.3168    1.4513   -2.1399 H       1  noname11    0.0233
     32 H17        -4.8336   -1.3484    0.2213 H       1  noname11    0.0233
     33 H18        -5.8889    0.0750    0.1434 H       1  noname11    0.0233
     34 H19        -5.2794   -0.6641   -1.3428 H       1  noname11    0.0233
     35 H20        -2.6234    4.8167    3.6992 H       1  noname11    0.0537
     36 H21        -0.8742    4.4269    3.2720 H       1  noname11    0.0537
     37 H22         0.7758   -1.3871   -0.6645 H       1  noname11    0.0276
     38 H23         2.1708   -0.4614   -0.0934 H       1  noname11    0.0276
     39 H24         1.3611   -0.0128   -1.6112 H       1  noname11    0.0276
@<TRIPOS>BOND
     1     1     2    1
     2     1     3    1
     3     1     9    1
     4     1    16    1
     5     2     4    1
     6     2     5    1
     7     2    17    1
     8     3     6    1
     9     3     7    1
    10     3    18    1
    11     4     8    1
    12     4    19    1
    13     4    20    1
    14     5    12    1
    15     5    13    1
    16     5    21    1
    17     6    10    1
    18     6    22    1
    19     6    23    1
    20     7     8    1
    21     7    14    2
    22     8    24    1
    23     8    25    1
    24     9    11    2
    25     9    26    1
    26    10    11    1
    27    10    27    1
    28    10    28    1
    29    11    15    1
    30    12    29    1
    31    12    30    1
    32    12    31    1
    33    13    32    1
    34    13    33    1
    35    13    34    1
    36    14    35    1
    37    14    36    1
    38    15    37    1
    39    15    38    1
    40    15    39    1
