@<TRIPOS>MOLECULE
17868
 26 27 0 0 0
SMALL
USER_CHARGES

@<TRIPOS>ATOM
      1 C1         -0.6245    2.3319    0.9629 C.3     1  noname11   -0.0168
      2 C2          0.6400    2.0622    0.1550 C.3     1  noname11   -0.0138
      3 C3         -0.2616    3.2007   -0.2289 C.3     1  noname11   -0.0393
      4 C4         -1.5471    1.1295    0.7451 C.3     1  noname11   -0.0282
      5 C5         -0.5353    2.9464    2.3469 C.3     1  noname11   -0.0405
      6 C6          0.4301    0.7311   -0.4458 C.2     1  noname11   -0.0774
      7 C7         -0.7632    0.1901   -0.1390 C.2     1  noname11   -0.0808
      8 C8         -1.8905    3.4997    2.7871 C.3     1  noname11   -0.0622
      9 C9          0.0161    1.9678    3.3845 C.3     1  noname11   -0.0622
     10 C10         1.4782    0.1143   -1.3046 C.3     1  noname11   -0.0436
     11 H1          1.6036    2.2677    0.6032 H       1  noname11    0.0354
     12 H2         -0.8541    3.1149   -1.1337 H       1  noname11    0.0279
     13 H3          0.1004    4.2075   -0.0521 H       1  noname11    0.0279
     14 H4         -1.8013    0.6240    1.6806 H       1  noname11    0.0315
     15 H5         -2.4735    1.4417    0.2517 H       1  noname11    0.0315
     16 H6          0.1629    3.7934    2.3080 H       1  noname11    0.0303
     17 H7         -1.1283   -0.7697   -0.4724 H       1  noname11    0.0575
     18 H8         -2.2743    4.2164    2.0531 H       1  noname11    0.0233
     19 H9         -2.6357    2.7044    2.8949 H       1  noname11    0.0233
     20 H10        -1.8058    4.0145    3.7499 H       1  noname11    0.0233
     21 H11         0.9828    1.5627    3.0676 H       1  noname11    0.0233
     22 H12        -0.6594    1.1233    3.5523 H       1  noname11    0.0233
     23 H13         0.1626    2.4702    4.3467 H       1  noname11    0.0233
     24 H14         1.1662   -0.8650   -1.6820 H       1  noname11    0.0276
     25 H15         2.4042   -0.0222   -0.7371 H       1  noname11    0.0276
     26 H16         1.6911    0.7557   -2.1656 H       1  noname11    0.0276
@<TRIPOS>BOND
     1     1     2    1
     2     1     3    1
     3     1     4    1
     4     1     5    1
     5     2     3    1
     6     2     6    1
     7     2    11    1
     8     3    12    1
     9     3    13    1
    10     4     7    1
    11     4    14    1
    12     4    15    1
    13     5     8    1
    14     5     9    1
    15     5    16    1
    16     6     7    2
    17     6    10    1
    18     7    17    1
    19     8    18    1
    20     8    19    1
    21     8    20    1
    22     9    21    1
    23     9    22    1
    24     9    23    1
    25    10    24    1
    26    10    25    1
    27    10    26    1
