REMARK  5 active torsions:
REMARK  status: ('A' for Active; 'I' for Inactive)
REMARK    1  A    between atoms: O1_1  and  C2_3 
REMARK    2  A    between atoms: C1_2  and  C2_3 
REMARK    3  A    between atoms: C2_3  and  C8_9 
REMARK    4  A    between atoms: C2_3  and  C9_10 
REMARK    5  A    between atoms: C6_7  and  C10_11 
ROOT
ATOM      1  C1  non d   1       1.050   2.281   0.447  0.00  0.00    -0.009 C 
ATOM      2  C3  non d   1       2.083   1.988  -0.663  0.00  0.00    -0.044 C 
ATOM      3  C4  non d   1       0.154   1.026   0.604  0.00  0.00    -0.029 C 
ATOM      4  C5  non d   1       2.942   0.753  -0.388  0.00  0.00    -0.032 C 
ATOM      5  C6  non d   1       2.141  -0.428   0.099  0.00  0.00    -0.080 C 
ATOM      6  C7  non d   1       0.875  -0.291   0.531  0.00  0.00    -0.082 C 
ATOM      7  H1  non d   1       0.405   3.086   0.064  0.00  0.00     0.034 H 
ATOM      8  H2  non d   1       1.534   1.823  -1.601  0.00  0.00     0.027 H 
ATOM      9  H3  non d   1       2.724   2.854  -0.857  0.00  0.00     0.027 H 
ATOM     10  H4  non d   1      -0.418   1.063   1.535  0.00  0.00     0.031 H 
ATOM     11  H5  non d   1      -0.591   1.028  -0.203  0.00  0.00     0.031 H 
ATOM     12  H6  non d   1       3.720   0.989   0.347  0.00  0.00     0.031 H 
ATOM     13  H7  non d   1       3.458   0.484  -1.318  0.00  0.00     0.031 H 
ATOM     14  H8  non d   1       0.318  -1.162   0.868  0.00  0.00     0.058 H 
ENDROOT
BRANCH   1  15
ATOM     15  C2  non d   1       1.655   2.815   1.790  0.00  0.00     0.062 C 
BRANCH  15  16
ATOM     16  O1  non d   1       2.381   1.787   2.462  0.00  0.00    -0.390 OA
ATOM     17  H15 non d   1       2.718   2.145   3.300  0.00  0.00     0.211 HD
ENDBRANCH  15  16
BRANCH  15  18
ATOM     18  C8  non d   1       0.547   3.296   2.743  0.00  0.00    -0.036 C 
ATOM     19  H9  non d   1      -0.071   2.468   3.101  0.00  0.00     0.026 H 
ATOM     20  H10 non d   1       0.979   3.747   3.645  0.00  0.00     0.026 H 
ATOM     21  H11 non d   1      -0.098   4.041   2.266  0.00  0.00     0.026 H 
ENDBRANCH  15  18
BRANCH  15  22
ATOM     22  C9  non d   1       2.625   3.983   1.553  0.00  0.00    -0.036 C 
ATOM     23  H12 non d   1       2.160   4.779   0.962  0.00  0.00     0.026 H 
ATOM     24  H13 non d   1       3.540   3.651   1.052  0.00  0.00     0.026 H 
ATOM     25  H14 non d   1       2.956   4.415   2.505  0.00  0.00     0.026 H 
ENDBRANCH  15  22
ENDBRANCH   1  15
BRANCH   5  26
ATOM     26  C10 non d   1       2.845  -1.752   0.091  0.00  0.00    -0.044 C 
ATOM     27  H16 non d   1       3.140  -2.020  -0.928  0.00  0.00     0.028 H 
ATOM     28  H17 non d   1       3.745  -1.707   0.714  0.00  0.00     0.028 H 
ATOM     29  H18 non d   1       2.212  -2.558   0.478  0.00  0.00     0.028 H 
ENDBRANCH   5  26
TORSDOF 5
