REMARK  3 active torsions:
REMARK  status: ('A' for Active; 'I' for Inactive)
REMARK    1  A    between atoms: C1_1  and  C6_6 
REMARK    2  A    between atoms: C1_1  and  C7_7 
REMARK    3  A    between atoms: C8_8  and  C10_10 
ROOT
ATOM      1  C1  non d   1      -0.718   2.924   1.898  0.00  0.00    -0.029 C 
ATOM      2  C2  non d   1      -0.143   2.913   0.485  0.00  0.00    -0.029 A 
ATOM      3  C3  non d   1      -1.578   2.496   0.714  0.00  0.00    -0.029 A 
ATOM      4  C4  non d   1       0.866   1.903   0.014  0.00  0.00    -0.029 A 
ATOM      5  C5  non d   1      -1.989   1.074   0.463  0.00  0.00    -0.031 A 
ATOM      6  C8  non d   1       0.354   0.509  -0.270  0.00  0.00    -0.080 A 
ATOM      7  C9  non d   1      -0.927   0.153  -0.066  0.00  0.00    -0.082 A 
ATOM      8  H1  non d   1       0.031   3.876   0.015  0.00  0.00     0.031 H 
ATOM      9  H2  non d   1      -2.358   3.181   0.395  0.00  0.00     0.031 H 
ATOM     10  H3  non d   1       1.681   1.848   0.746  0.00  0.00     0.032 H 
ATOM     11  H4  non d   1       1.309   2.288  -0.914  0.00  0.00     0.032 H 
ATOM     12  H5  non d   1      -2.406   0.649   1.384  0.00  0.00     0.031 H 
ATOM     13  H6  non d   1      -2.807   1.081  -0.269  0.00  0.00     0.031 H 
ATOM     14  H13 non d   1      -1.248  -0.863  -0.281  0.00  0.00     0.058 H 
ENDROOT
BRANCH   1  15
ATOM     15  C6  non d   1      -0.262   1.913   2.921  0.00  0.00    -0.059 C 
ATOM     16  H7  non d   1       0.648   2.268   3.418  0.00  0.00     0.024 H 
ATOM     17  H8  non d   1      -1.034   1.779   3.686  0.00  0.00     0.024 H 
ATOM     18  H9  non d   1      -0.042   0.929   2.504  0.00  0.00     0.024 H 
ENDBRANCH   1  15
BRANCH   1  19
ATOM     19  C7  non d   1      -1.014   4.277   2.505  0.00  0.00    -0.059 C 
ATOM     20  H10 non d   1      -0.118   4.681   2.988  0.00  0.00     0.024 H 
ATOM     21  H11 non d   1      -1.344   5.001   1.752  0.00  0.00     0.024 H 
ATOM     22  H12 non d   1      -1.805   4.191   3.257  0.00  0.00     0.024 H 
ENDBRANCH   1  19
BRANCH   6  23
ATOM     23  C10 non d   1       1.373  -0.463  -0.792  0.00  0.00    -0.044 C 
ATOM     24  H14 non d   1       1.791  -0.104  -1.739  0.00  0.00     0.028 H 
ATOM     25  H15 non d   1       0.944  -1.454  -0.972  0.00  0.00     0.028 H 
ATOM     26  H16 non d   1       2.190  -0.578  -0.073  0.00  0.00     0.028 H 
ENDBRANCH   6  23
TORSDOF 3
