REMARK  5 active torsions:
REMARK  status: ('A' for Active; 'I' for Inactive)
REMARK    1  A    between atoms: O1_2  and  C6_7 
REMARK    2  A    between atoms: C4_5  and  C7_8 
REMARK    3  A    between atoms: C5_6  and  C10_11 
REMARK    4  A    between atoms: C8_9  and  C10_11 
REMARK    5  A    between atoms: C9_10  and  C10_11 
ROOT
ATOM      1  C1  X00 d   1     198.402 165.143 211.920  0.00  0.00    -0.061 C 
ATOM      2  C2  X00 d   1     197.595 163.995 211.318  0.00  0.00    -0.059 C 
ATOM      3  C3  X00 d   1     197.316 166.754 210.313  0.00  0.00    -0.038 C 
ATOM      4  C4  X00 d   1     197.671 166.484 211.777  0.00  0.00    -0.055 C 
ATOM      5  C5  X00 d   1     197.234 164.260 209.850  0.00  0.00    -0.026 C 
ATOM      6  C6  X00 d   1     196.509 165.607 209.699  0.00  0.00     0.040 C 
ATOM      7  H1  X00 d   1     198.593 164.933 212.980  0.00  0.00     0.033 H 
ATOM      8  H2  X00 d   1     199.381 165.196 211.425  0.00  0.00     0.033 H 
ATOM      9  H3  X00 d   1     198.175 163.068 211.399  0.00  0.00     0.033 H 
ATOM     10  H4  X00 d   1     196.680 163.850 211.907  0.00  0.00     0.033 H 
ATOM     11  H5  X00 d   1     196.746 167.686 210.224  0.00  0.00     0.037 H 
ATOM     12  H6  X00 d   1     198.230 166.912 209.723  0.00  0.00     0.037 H 
ATOM     13  H7  X00 d   1     196.739 166.433 212.356  0.00  0.00     0.039 H 
ATOM     14  H8  X00 d   1     198.158 164.294 209.258  0.00  0.00     0.044 H 
ATOM     15  H9  X00 d   1     195.524 165.558 210.181  0.00  0.00     0.083 H 
ENDROOT
BRANCH   5  16
ATOM     16  C10 X00 d   1     196.393 163.107 209.294  0.00  0.00    -0.055 C 
ATOM     17  H19 X00 d   1     196.802 162.168 209.684  0.00  0.00     0.039 H 
BRANCH  16  18
ATOM     18  C8  X00 d   1     194.944 163.233 209.758  0.00  0.00    -0.073 C 
ATOM     19  H13 X00 d   1     194.487 164.160 209.393  0.00  0.00     0.028 H 
ATOM     20  H14 X00 d   1     194.884 163.233 210.852  0.00  0.00     0.028 H 
ATOM     21  H15 X00 d   1     194.346 162.393 209.389  0.00  0.00     0.028 H 
ENDBRANCH  16  18
BRANCH  16  22
ATOM     22  C9  X00 d   1     196.472 163.075 207.771  0.00  0.00    -0.073 C 
ATOM     23  H16 X00 d   1     196.073 163.995 207.331  0.00  0.00     0.028 H 
ATOM     24  H17 X00 d   1     195.897 162.233 207.373  0.00  0.00     0.028 H 
ATOM     25  H18 X00 d   1     197.509 162.962 207.437  0.00  0.00     0.028 H 
ENDBRANCH  16  22
ENDBRANCH   5  16
BRANCH   6  26
ATOM     26  O1  X00 d   1     196.302 165.879 208.316  0.00  0.00    -0.395 OA
ATOM     27  H20 X00 d   1     197.122 165.630 207.860  0.00  0.00     0.210 HD
ENDBRANCH   6  26
BRANCH   4  28
ATOM     28  C7  X00 d   1     198.514 167.622 212.348  0.00  0.00    -0.073 C 
ATOM     29  H10 X00 d   1     199.449 167.701 211.795  0.00  0.00     0.028 H 
ATOM     30  H11 X00 d   1     198.736 167.429 213.397  0.00  0.00     0.028 H 
ATOM     31  H12 X00 d   1     197.971 168.562 212.264  0.00  0.00     0.028 H 
ENDBRANCH   4  28
TORSDOF 5
