@<TRIPOS>MOLECULE
menth_recep
 31 31 0 0 0
SMALL
USER_CHARGES

@<TRIPOS>ATOM
      1 C1        198.4020  165.1430  211.9200 C.3     1  X0011       0.0000
      2 O1        196.3020  165.8790  208.3160 O.3     1  X0011       0.0000
      3 C2        197.5950  163.9950  211.3180 C.3     1  X0011       0.0000
      4 C3        197.3160  166.7540  210.3130 C.3     1  X0011       0.0000
      5 C4        197.6710  166.4840  211.7770 C.3     1  X0011       0.0000
      6 C5        197.2340  164.2600  209.8500 C.3     1  X0011       0.0000
      7 C6        196.5090  165.6070  209.6990 C.3     1  X0011       0.0000
      8 C7        198.5140  167.6220  212.3480 C.3     1  X0011       0.0000
      9 C8        194.9440  163.2330  209.7580 C.3     1  X0011       0.0000
     10 C9        196.4720  163.0750  207.7710 C.3     1  X0011       0.0000
     11 C10       196.3930  163.1070  209.2940 C.3     1  X0011       0.0000
     12 H1        198.5930  164.9330  212.9800 H       1  X0011       0.0000
     13 H2        199.3810  165.1960  211.4250 H       1  X0011       0.0000
     14 H3        198.1750  163.0680  211.3990 H       1  X0011       0.0000
     15 H4        196.6800  163.8500  211.9070 H       1  X0011       0.0000
     16 H5        196.7460  167.6860  210.2240 H       1  X0011       0.0000
     17 H6        198.2300  166.9120  209.7230 H       1  X0011       0.0000
     18 H7        196.7390  166.4330  212.3560 H       1  X0011       0.0000
     19 H8        198.1580  164.2940  209.2580 H       1  X0011       0.0000
     20 H9        195.5240  165.5580  210.1810 H       1  X0011       0.0000
     21 H10       199.4490  167.7010  211.7950 H       1  X0011       0.0000
     22 H11       198.7360  167.4290  213.3970 H       1  X0011       0.0000
     23 H12       197.9710  168.5620  212.2640 H       1  X0011       0.0000
     24 H13       194.4870  164.1600  209.3930 H       1  X0011       0.0000
     25 H14       194.8840  163.2330  210.8520 H       1  X0011       0.0000
     26 H15       194.3460  162.3930  209.3890 H       1  X0011       0.0000
     27 H16       196.0730  163.9950  207.3310 H       1  X0011       0.0000
     28 H17       195.8970  162.2330  207.3730 H       1  X0011       0.0000
     29 H18       197.5090  162.9620  207.4370 H       1  X0011       0.0000
     30 H19       196.8020  162.1680  209.6840 H       1  X0011       0.0000
     31 H20       197.1220  165.6300  207.8600 H       1  X0011       0.0000
@<TRIPOS>BOND
     1     1     5    1
     2     1    12    1
     3     1    13    1
     4     2    31    1
     5     1     3    1
     6     3    14    1
     7     3    15    1
     8     4     7    1
     9     4    16    1
    10     4    17    1
    11     4     5    1
    12     5     8    1
    13     5    18    1
    14     3     6    1
    15     6     7    1
    16     6    11    1
    17     6    19    1
    18     2     7    1
    19     7    20    1
    20     8    21    1
    21     8    22    1
    22     8    23    1
    23     9    24    1
    24     9    25    1
    25     9    26    1
    26    10    27    1
    27    10    28    1
    28    10    29    1
    29     9    11    1
    30    10    11    1
    31    11    30    1
